material2

BOUNDARIES
Number of particles: 100
x-coordinate: 20
y-coordinate: 20
z-coordinate: 20
Epsilon: 20
Sigma: 20
Charge: 20

loop_
_symmetry_equiv_pos_as_xyz
  x,y,z
_cell_length_a          20
_cell_length_b          20
_cell_length_c          20
_cell_angle_alpha       90.0000
_cell_angle_beta        90.0000
_cell_angle_gamma       90.0000
loop_
_atom_site_label
_atom_site_fract_x
_atom_site_fract_y
_atom_site_fract_z
_atom_site_charge
#NET CHARGE: 0.0
A0     1     0     5     0.421588418196
A1     5     1     0    -0.485940620123
A2     7     1     5    -0.543844350638
A3     17     2     4     0.932378016004
A4     16     0     1     0.183457742512
A5     11     2     3    -0.274415760767
A6     1     1     4    -0.233223445184
