material14

BOUNDARIES
Number of particles: 100
x-coordinate: 20
y-coordinate: 20
z-coordinate: 20
Epsilon: 20
Sigma: 20
Charge: 20

loop_
_symmetry_equiv_pos_as_xyz
  x,y,z
_cell_length_a          20
_cell_length_b          20
_cell_length_c          20
_cell_angle_alpha       90.0000
_cell_angle_beta        90.0000
_cell_angle_gamma       90.0000
loop_
_atom_site_label
_atom_site_fract_x
_atom_site_fract_y
_atom_site_fract_z
_atom_site_charge
#NET CHARGE: 0.0
A0     6     2     6     0.763170115914
A1     6     3     1     0.714170561873
A2     11     13     1     0.0549081608301
A3     4     7     5    -0.859356523359
A4     1     2     0     0.485543254246
A5     2     6     3     0.491898217317
A6     8     4     1     0.485218841398
A7     3     16     5    -0.69371132167
A8     2     15     5    -0.968971920001
A9     0     11     2    -0.00637153723076
A10     3     12     3     0.866724485664
A11     0     1     1    -0.977486513954
A12     7     1     3     0.359789714224
A13     5     13     6    -0.579907290574
A14     11     2     0    -0.135618244677
