material1

BOUNDARIES
Number of particles: 100
x-coordinate: 20
y-coordinate: 20
z-coordinate: 20
Epsilon: 20
Sigma: 20
Charge: 20

loop_
_symmetry_equiv_pos_as_xyz
  x,y,z
_cell_length_a          20
_cell_length_b          20
_cell_length_c          20
_cell_angle_alpha       90.0000
_cell_angle_beta        90.0000
_cell_angle_gamma       90.0000
loop_
_atom_site_label
_atom_site_fract_x
_atom_site_fract_y
_atom_site_fract_z
_atom_site_charge
#NET CHARGE: 0.0
A0     1     8     5    -0.764557687114
A1     0     6     0    -0.34576657897
A2     3     8     0    -0.281519523785
A3     4     7     9    -0.866780177847
A4     6     13     2    -0.450657602492
A5     2     14     7     0.316500216972
A6     5     13     0     0.0250016422453
A7     4     14     4     0.358521856724
A8     1     15     0     0.664534902686
A9     3     6     4    -0.620553975923
A10     1     6     3    -0.177807299895
A11     6     2     3    -0.852180375056
A12     2     10     3     0.962703970159
A13     2     10     0    -0.47272537642
A14     2     15     0     0.406423639647
A15     3     15     4     0.292669947343
A16     4     13     3     0.698616029344
A17     5     5     0    -0.450682890022
A18     0     9     4     0.978401300354
A19     3     7     8    -0.623922636
A20     6     3     0     0.339272159219
A21     1     10     2     0.86450845883
