material5

BOUNDARIES
Number of particles: 100
x-coordinate: 20
y-coordinate: 20
z-coordinate: 20
Epsilon: 20
Sigma: 20
Charge: 20

loop_
_symmetry_equiv_pos_as_xyz
  x,y,z
_cell_length_a          20
_cell_length_b          20
_cell_length_c          20
_cell_angle_alpha       90.0000
_cell_angle_beta        90.0000
_cell_angle_gamma       90.0000
loop_
_atom_site_label
_atom_site_fract_x
_atom_site_fract_y
_atom_site_fract_z
_atom_site_charge
#NET CHARGE: 0.0
A0     1     2     12    -0.503353180254
A1     15     2     15     0.641786086795
A2     3     2     16     0.779584458003
A3     5     3     14    -0.418148063449
A4     0     0     4    -0.885706481666
A5     2     2     2     0.534773016624
A6     8     2     13    -0.752792286156
A7     6     5     0     0.158616640766
A8     5     1     3     0.0297347986398
A9     2     6     15     0.539830005682
A10     12     4     14    -0.77891702967
A11     15     2     12     0.980235606244
A12     13     2     2    -0.0122947979694
A13     1     3     10     0.913939888446
A14     5     6     16    -0.811260879796
A15     12     6     8    -0.987919117228
A16     8     2     6    -0.380091359014
A17     8     6     0    -0.605864827043
A18     3     4     13     0.475402591778
A19     2     4     0    -0.963327250189
A20     7     2     9    -0.939212592125
A21     7     4     11     0.745885261458
A22     5     0     14     0.0645399921238
A23     16     3     1    -0.833477538799
A24     3     4     5     0.8683615325
A25     2     2     12    -0.449747918375
A26     12     4     7     0.0940669095868
A27     16     2     8    -0.497309463426
A28     2     0     16    -0.128764927506
A29     4     1     3    -0.681729480607
A30     15     5     12    -0.445164708908
A31     10     3     8    -0.339904794369
A32     12     1     15     0.10636607933
A33     13     0     14     0.602579967461
A34     11     3     7     0.349414490086
A35     4     4     5    -0.841375645243
A36     4     0     7     0.662120668544
A37     9     3     1    -0.520522633448
A38     4     2     10    -0.693587942919
A39     7     3     14    -0.875984196903
A40     2     1     4    -0.277710032211
A41     16     5     14    -0.491505573882
A42     8     2     5    -0.0684424966096
A43     8     3     8    -0.858240962456
A44     2     0     11     0.0278748087201
A45     4     4     9     0.413167417693
A46     5     2     15     0.413313795194
A47     16     6     13     0.588747469231
A48     2     2     1    -0.324200315844
A49     1     5     12     0.0681892671362
A50     3     1     7    -0.606772106334
A51     7     2     16    -0.337130933815
A52     16     2     5    -0.896526797241
A53     16     1     13     0.607730289015
A54     5     3     5     0.508655054667
A55     6     3     16    -0.3535038462
A56     11     4     5     0.649712270353
A57     4     1     16    -0.782490226474
A58     15     2     2    -0.424613045871
A59     12     1     3     0.22637331423
A60     10     6     15    -0.964896721358
A61     12     4     14    -0.753236078528
A62     8     5     4    -0.421193453565
A63     16     1     10     0.318264913326
A64     4     1     4     0.197325184054
A65     6     4     11    -0.39114178157
A66     14     5     6     0.831760397485
A67     14     2     12     0.00556959958077
A68     11     6     11     0.722019624775
A69     3     6     0    -0.281738749046
A70     14     0     6     0.388160525437
A71     4     6     11    -0.471811147068
A72     5     6     5     0.284137460425
A73     0     4     7     0.946849344009
A74     16     3     3    -0.367138949321
A75     3     0     16    -0.591336643153
A76     13     3     12     0.972432398945
A77     12     2     14     0.592338680329
A78     7     1     16     0.151801483678
A79     6     5     5    -0.737613906971
A80     14     1     0    -0.683518932638
A81     7     0     10     0.170121872102
A82     16     3     4     0.88393316365
A83     2     1     0    -0.618946577869
A84     2     3     14     0.892508914892
A85     2     3     3     0.478857075964
A86     3     4     6     0.854359638913
A87     1     2     6    -0.729518565193
A88     2     0     11     0.38516666817
A89     9     2     9     0.138942614376
A90     1     5     12    -0.986611286432
A91     2     0     11     0.0867738832385
A92     4     6     15    -0.0645405345334
A93     2     2     3    -0.173185548606
A94     10     1     13    -0.497917375102
A95     11     4     16     0.42720669493
A96     1     0     8    -0.735932331283
A97     6     3     1     0.229765386614
A98     9     3     9    -0.547526581276
A99     4     2     10    -0.288023320453
A100     15     3     4     0.803646564903
A101     3     3     1    -0.811507022791
A102     5     4     6    -0.72238168383
A103     4     5     2     0.970372650231
A104     7     3     4    -0.691554851496
A105     6     1     11     0.385217059235
A106     5     0     5    -0.282066616446
A107     15     3     10    -0.119272618944
A108     0     4     14     0.825481423403
A109     8     0     7    -0.723208385849
A110     13     0     9     0.608412898655
A111     11     0     1     0.53724579251
A112     5     1     11    -0.863094386356
A113     11     4     4    -0.0622849606588
A114     2     1     16     0.357662438149
A115     11     5     2    -0.935976873237
A116     5     4     12    -0.95237967467
A117     9     6     4     0.669313906936
A118     11     1     5     0.418815735662
A119     11     4     14     0.678990328574
A120     9     4     10    -0.409072342573
A121     2     5     11     0.99742819017
A122     7     3     13     0.568827017317
A123     10     2     9    -0.759124378169
A124     14     5     2     0.338396038597
A125     8     4     11    -0.0343082658093
A126     16     0     4     0.889431071095
A127     12     1     0    -0.659177887476
A128     4     0     11    -0.493131317161
A129     10     3     1    -0.841590102732
A130     3     0     1    -0.298957024648
A131     4     1     7     0.923387342623
A132     15     4     5     0.679440027825
A133     14     1     1     0.553786192561
A134     7     3     9    -0.45834399241
A135     1     2     7    -0.761102004216
A136     1     2     14     0.0177978009421
A137     14     4     6    -0.611833982728
A138     14     6     16     0.124536546484
A139     16     6     16    -0.356600024223
A140     5     0     6     0.0842217513367
A141     9     3     13    -0.110263336403
A142     7     6     16     0.622383939361
A143     11     5     7    -0.925924166748
A144     8     6     3    -0.298436751943
A145     12     2     5     0.843010270189
A146     1     4     1     0.338727940604
A147     11     4     0    -0.645025933059
A148     0     0     11    -0.351015421495
A149     9     2     15    -0.580218781939
A150     11     5     11     0.651511721856
A151     8     1     2    -0.244275672001
A152     16     6     11     0.664174877701
A153     1     3     0     0.646928822472
A154     9     4     13     0.534365102842
A155     8     5     14     0.677433752357
A156     8     3     13     0.138612026077
A157     8     2     4     0.0232101160492
A158     0     3     11     0.425565623094
A159     11     4     7     0.618125336193
A160     11     3     3     0.733278527745
A161     1     0     5     0.0148404579678
A162     3     6     0    -0.92400848188
A163     9     4     0    -0.525143014217
A164     2     1     6    -0.95687444327
A165     14     2     14    -0.84681387536
A166     7     5     13     0.387590553707
A167     2     4     6    -0.2357697461
A168     10     1     5    -0.478242077058
A169     12     4     7    -0.446458814841
A170     6     4     6     0.442246534797
A171     8     3     2     0.614119203932
A172     3     4     11    -0.43644770649
A173     16     5     8    -0.860920038746
A174     5     3     5     0.217889269618
A175     7     2     10     0.329483904746
A176     13     1     5     0.256297348023
A177     9     6     10     0.572843744501
A178     6     2     15     0.707271374812
A179     8     1     9    -0.0674285972423
A180     2     5     2     0.446606977685
A181     4     1     8    -0.68826558047
A182     0     0     6     0.19403200517
A183     11     3     15    -0.979607030118
A184     9     1     11    -0.833992841694
A185     6     1     10    -0.813947564295
A186     7     0     16    -0.494160820537
A187     13     4     1    -0.976186664603
A188     7     5     0     0.809800988428
A189     15     6     7     0.628317593076
A190     7     4     14     0.0587426319804
A191     12     0     5     0.975437966895
A192     3     1     14     0.173320292745
A193     10     1     7     0.66444104798
A194     0     4     12    -0.970949530078
A195     7     0     6     0.711795048141
A196     0     0     14     0.76884007604
A197     6     2     11     0.803944758089
A198     10     4     9    -0.987996845955
A199     9     2     16     0.731564086996
A200     0     4     9    -0.585092929579
A201     8     3     3    -0.392790180341
A202     12     4     13     0.278425573596
A203     13     2     13    -0.201174039704
A204     0     6     16     0.769904609597
A205     8     2     1    -0.060929343571
A206     14     6     10     0.40696686234
A207     7     0     16     0.920834263034
A208     15     0     4     0.843466671747
A209     9     2     12     0.00136519476899
A210     8     6     8    -0.634447187692
A211     8     2     7     0.732346987249
A212     14     1     11    -0.975254649445
A213     11     4     8     0.0652949973515
A214     14     2     14    -0.251164777145
A215     15     3     12     0.443017197893
A216     9     6     15     0.427478869837
A217     0     0     13    -0.736570528668
A218     8     4     16     0.0597741085122
A219     6     4     5    -0.141176087015
A220     2     4     9    -0.165262956943
A221     0     3     4    -0.790421070243
A222     1     4     0     0.0432052576565
A223     2     6     11     0.299426395123
A224     1     0     7     0.63905987824
A225     14     0     14     0.381526576571
A226     8     6     11    -0.60246884516
A227     10     1     4     0.508565235061
A228     1     4     1    -0.940926465532
A229     7     6     6     0.174114879435
A230     16     0     14     0.870382507981
A231     6     4     16    -0.948449237204
A232     0     2     4    -0.00228310360982
A233     2     2     0    -0.349991085624
A234     15     6     14     0.0885396422906
A235     6     5     14    -0.946197642355
A236     5     1     2    -0.332000993434
A237     3     3     10     0.505340696405
A238     16     2     7    -0.729426678381
A239     14     1     2     0.287142787103
A240     9     0     12    -0.678256237997
A241     11     0     7    -0.577526752561
A242     9     4     7     0.844416389306
A243     1     0     12     0.0660201005502
A244     12     0     11    -0.982340538785
A245     9     2     16     0.05687318034
A246     16     3     11     0.382383921999
A247     6     6     7    -0.719321981232
A248     9     1     4     0.258241221875
A249     2     4     12     0.89109547501
A250     12     0     5    -0.781903087092
A251     4     4     16    -0.441514237936
A252     4     0     5    -0.143600716621
A253     11     3     13    -0.944273280066
A254     6     5     6     0.214998306175
A255     7     4     12     0.0960162752916
A256     10     5     3    -0.93859860891
A257     10     6     12     0.100578179068
A258     14     1     5     0.271842269517
A259     1     0     6    -0.271636985447
A260     3     0     1     0.830749740056
A261     10     4     12     0.62048958865
A262     8     0     5    -0.762608762036
A263     8     0     5     0.903217116579
A264     12     5     11    -0.430393197669
A265     11     1     8     0.960714176915
A266     2     1     6     0.955369976208
A267     16     4     13     0.303363684165
A268     10     1     10    -0.482405598544
A269     8     0     10     0.315228234856
A270     1     1     5    -0.205848108506
A271     15     4     0    -0.542573450707
A272     14     3     7     0.952875550038
A273     15     0     13    -0.468141563595
A274     7     4     5    -0.873541480367
A275     9     5     8     0.592547043269
A276     14     5     9     0.571180134054
A277     4     6     14     0.542714813639
A278     5     0     11    -0.620816627784
A279     12     1     11    -0.98613854581
A280     6     5     7    -0.867618566349
A281     7     6     1     0.171808972021
A282     7     5     0     0.593865635747
A283     0     0     1    -0.179926149928
A284     1     3     14     0.933088437885
A285     0     2     9    -0.115867400513
A286     10     5     2    -0.988464344866
A287     10     5     13    -0.0383199199464
A288     6     3     6    -0.760569282482
A289     3     2     12     0.874005800371
A290     16     6     0    -0.0956450024203
A291     3     0     9     0.921559885648
A292     0     4     10     0.947442827549
A293     8     3     0    -0.140433815807
A294     15     1     6     0.010891614987
A295     4     5     0    -0.536076983894
A296     3     3     11    -0.00380512642469
A297     14     0     14    -0.415969206138
A298     13     6     11     0.0852465802904
A299     16     2     12     0.726753256414
A300     4     0     1    -0.400118241153
A301     8     4     3     0.544474793061
A302     11     0     9     0.191148252493
A303     10     4     3    -0.575948855941
A304     9     6     10    -0.0940421171778
A305     16     5     3    -0.832862724784
A306     12     4     9    -0.275044620691
A307     9     0     14     0.407641253175
A308     16     6     16     0.881343362839
A309     4     4     9    -0.317375817689
A310     14     0     11    -0.216777876696
A311     16     5     2    -0.825489379117
A312     7     1     2     0.566305837552
A313     4     2     16     0.651646673854
A314     11     2     12    -0.741749023405
A315     2     3     5     0.635777170134
A316     16     4     11    -0.702029454811
A317     3     2     10     0.122395196431
A318     6     4     11    -0.035600242447
A319     3     0     9    -0.941464218253
A320     7     5     4     0.318743221089
A321     7     3     3     0.515258399528
A322     1     2     8     0.55802065394
A323     4     4     15    -0.719755720813
A324     0     0     0    -0.288030712899
A325     6     2     13    -0.385534639939
A326     2     1     11     0.685374926725
A327     7     4     7     0.0922442786722
A328     0     1     5     0.492553292027
A329     10     4     4     0.197172309956
A330     7     0     12     0.930886287154
A331     14     5     15    -0.469992014292
A332     11     6     6     0.446133166322
A333     13     0     4    -0.383513120337
A334     13     2     0    -0.124459912459
A335     0     6     12    -0.311578822004
A336     13     2     6     0.522754647505
A337     13     1     9     0.0866629396445
A338     2     2     6     0.521778981632
A339     4     4     2     0.850385844306
A340     13     3     8     0.144264162488
A341     13     3     7    -0.185022999661
A342     5     6     4    -0.940313143249
A343     12     0     15     0.838669261967
A344     7     0     8    -0.576170697269
A345     10     4     7    -0.350170109116
A346     8     2     8    -0.511145813519
A347     15     1     13    -0.335574730145
A348     4     1     5    -0.602569032314
A349     13     5     14    -0.0483255611491
A350     4     2     12     0.605357629983
A351     13     0     2     0.124623822875
A352     10     4     12     0.7088911739
A353     15     0     16     0.213984541682
A354     13     6     6    -0.793579418875
A355     6     4     15     0.722821852843
A356     14     5     14    -0.910731053696
A357     1     3     9    -0.575254531577
A358     3     3     8    -0.816590913426
A359     0     4     8    -0.216037990339
A360     15     5     5    -0.241779142372
A361     10     2     15     0.234086172181
A362     0     1     16    -0.169982415632
A363     9     6     12     0.893452823064
A364     16     0     0     0.696839266179
A365     8     3     3    -0.54086324529
A366     14     0     9    -0.122861026419
A367     3     0     7     0.300809605312
A368     7     6     0    -0.222548400971
A369     5     2     15     0.798919278939
A370     3     4     2    -0.523307931083
A371     15     1     8     0.900235511057
A372     6     6     6    -0.323216261361
A373     9     5     4    -0.0506300756448
A374     11     6     11     0.0875667102806
A375     12     2     8    -0.556284114104
A376     4     5     13     0.524675026749
A377     4     1     6     0.379708330443
A378     9     1     6    -0.88166741336
A379     10     1     1    -0.552921755
A380     5     0     10    -0.255311457501
A381     16     2     9     0.393051207443
A382     9     5     10     0.782421793098
A383     3     0     10     0.0763007964945
A384     10     1     0     0.0979346053254
A385     15     3     7    -0.644632501432
A386     10     2     7    -0.302868439733
A387     3     2     12    -0.743385366051
A388     6     1     6     0.246317806622
A389     12     1     14     0.298797007953
A390     8     0     5     0.365277955392
A391     3     3     0    -0.88049104551
A392     3     1     6     0.847961945825
A393     9     3     13     0.600471362536
A394     16     0     2     0.333931162395
A395     13     0     13    -0.174901740096
A396     8     1     1    -0.722376351989
A397     14     4     15    -0.642116688746
A398     6     5     2     0.0673951657317
A399     14     5     2    -0.60182578141
A400     16     5     6     0.94509321307
A401     10     3     4    -0.716156082753
A402     11     3     8    -0.789470616316
A403     12     1     15     0.546376785124
A404     1     0     6     0.227611886878
A405     15     5     9     0.747708770127
A406     6     1     13    -0.425668080547
A407     14     3     14    -0.843056963021
A408     8     5     5    -0.606494444026
A409     9     1     12     0.359257443304
A410     12     1     7     0.470741108851
A411     2     2     12    -0.478381419776
A412     0     2     10    -0.304927092778
A413     5     3     16    -0.0734095862497
A414     5     2     8    -0.451203599588
A415     1     4     16    -0.492537716676
A416     14     4     13     0.0321634465235
A417     2     4     6    -0.188892715391
A418     2     6     8     0.913841288691
A419     15     0     16     0.831478736794
A420     14     1     10     0.592168066162
A421     12     2     5    -0.226013194451
A422     3     2     4     0.5593674118
A423     3     5     12    -0.513891810806
A424     14     0     8    -0.0720521855474
A425     11     3     4     0.0102557796828
A426     2     0     1     0.0316021546341
A427     14     4     8     0.582782282755
A428     2     2     5     0.998158408314
A429     2     5     4     0.698579383472
A430     8     6     12     0.668499890471
A431     2     3     7    -0.474433765554
A432     3     5     5     0.225188144812
A433     7     2     11     0.896969871014
A434     4     6     5    -0.622940749389
A435     6     4     11     0.833742631941
A436     3     1     5     0.502710432875
A437     16     5     2    -0.734036046327
A438     7     2     12     0.507055238608
A439     2     0     9     0.251789266887
A440     15     2     6    -0.0408171997106
A441     7     3     2    -0.671185430771
A442     15     6     1    -0.90615481739
A443     9     5     11    -0.973503572824
A444     0     1     1     0.607125115209
A445     4     5     2     0.556329413231
A446     15     5     14    -0.699833804355
A447     7     3     16     0.815509419872
A448     15     2     1     0.88524084139
A449     7     5     14     0.0526511769378
A450     11     5     5     0.485533663691
A451     0     4     3     0.916203054523
A452     15     6     16     0.930237637183
A453     4     6     14     0.882837436949
A454     0     0     3    -0.925714599473
A455     12     1     8    -0.34905195119
A456     15     4     12    -0.991243335423
A457     12     3     16    -0.525879156603
A458     10     6     0     0.0350944647193
A459     4     3     13    -0.121986881354
A460     2     1     7     0.158208329316
A461     10     4     1     0.0684823876539
A462     2     1     2    -0.666811339295
A463     2     0     7    -0.208587174313
A464     15     4     16     0.40420237978
A465     16     6     3     0.367738608221
A466     8     1     0    -0.346156236407
A467     8     4     6     0.28567391693
A468     13     1     9     0.864818395405
A469     1     2     3    -0.973482209773
A470     2     4     7    -0.589148047317
A471     2     0     10     0.729593217676
A472     5     3     7    -0.487587289508
A473     9     2     16     0.129752882871
A474     7     6     15    -0.940599741324
A475     10     4     14     0.19075650516
A476     8     4     10    -0.162505000987
A477     0     0     1     0.701733749159
A478     4     5     15     0.47388896649
A479     4     6     13    -0.139279461889
A480     5     0     13    -0.219356558106
A481     7     4     10     0.958503235516
A482     2     6     11    -0.469966998179
A483     6     5     11    -0.557859711693
A484     11     6     12    -0.357888054973
A485     16     2     15    -0.923383209187
A486     7     2     8    -0.55310577626
A487     9     0     7     0.325623606429
A488     10     5     7    -0.232286140409
A489     12     5     6     0.29072154538
A490     10     1     4     0.64823800589
A491     6     5     4     0.550514527664
A492     6     1     0    -0.452404930893
A493     12     1     8     0.397463400154
A494     8     5     3     0.586707217279
A495     6     0     3    -0.96377795208
A496     8     5     4    -0.58509921454
A497     14     6     0     0.489606315228
A498     9     2     5    -0.753837704443
A499     7     4     4    -0.824542358965
A500     3     5     11     0.959803520812
A501     12     1     5    -0.065430275201
A502     5     6     0    -0.187213262144
A503     3     1     16     0.389403576715
A504     6     0     13    -0.634661741679
A505     5     4     2    -0.700832826863
A506     15     0     3     0.00448448154301
A507     2     2     7    -0.752944605851
A508     3     5     7    -0.990905627526
A509     9     6     0    -0.00323457748613
A510     1     0     14     0.546532908991
A511     5     3     4    -0.291094897399
A512     8     3     10    -0.0620308995699
A513     1     0     14     0.64935035104
A514     14     5     2    -0.497666543625
A515     14     4     16     0.579170807319
A516     0     1     0    -0.930163063719
A517     6     4     7     0.518160357585
A518     16     5     9     0.227240883638
A519     3     5     16    -0.267980379744
A520     1     4     7     0.593492872746
A521     16     3     6     0.768753149704
A522     8     0     11    -0.880978296344
A523     2     1     4    -0.983177624541
A524     7     6     1    -0.11174633256
A525     5     3     8    -0.0977008898212
A526     14     4     13    -0.305460619646
A527     15     0     8    -0.113578640779
A528     1     1     10     0.47318201069
A529     16     6     0    -0.920427938813
A530     12     3     0    -0.825564881953
A531     15     0     8    -0.26761242025
A532     4     3     2    -0.857981825433
A533     14     3     3    -0.275219379866
A534     10     5     11     0.678515841266
A535     8     1     6    -0.199807911234
A536     7     0     8    -0.591169425113
A537     8     5     0    -0.900456446055
A538     7     3     11     0.76025333305
A539     4     0     6    -0.235285747777
A540     14     1     8     0.0472973139128
A541     4     5     4    -0.435974138751
A542     10     1     12    -0.635366830245
A543     11     0     10     0.588058035768
A544     16     2     11    -0.591987211869
A545     16     4     16     0.779349707129
A546     14     5     3     0.43265750671
A547     13     0     6    -0.400651148079
A548     6     0     4     0.0800986920995
A549     3     1     0    -0.262865178623
A550     16     1     11     0.300411490828
A551     3     4     11    -0.555381762912
A552     7     5     4    -0.492894395365
A553     14     1     12     0.472527217489
A554     6     1     12    -0.752886258918
A555     4     4     12     0.445128055465
A556     15     3     0     0.883398518217
A557     1     2     14     0.391102475091
A558     14     2     1     0.720573267367
A559     10     6     8    -0.989793563171
A560     5     4     3    -0.977110365239
A561     3     5     9     0.288116553461
A562     7     1     7     0.463731607055
A563     16     0     8    -0.00598326715111
A564     13     2     9     0.412865754221
A565     0     4     7     0.451474109954
A566     13     2     6    -0.0989930349582
A567     3     5     13    -0.610371247938
A568     11     5     3    -0.867922148238
A569     5     3     1     0.451404715116
A570     13     5     8    -0.750603399228
A571     4     1     5    -0.77189909901
A572     15     2     2    -0.553931161132
A573     14     5     9     0.41253064672
A574     7     2     4     0.0319563665497
A575     1     0     11     0.223986535855
A576     7     4     16     0.681679680616
A577     10     4     5    -0.512394986081
A578     11     0     2     0.128747125291
A579     5     4     12     0.499453299267
A580     14     3     8    -0.741164308843
A581     13     1     14     0.115006339029
A582     3     2     8    -0.630501929837
A583     11     1     15    -0.0513656357342
A584     5     4     6    -0.0565571175448
A585     0     4     14    -0.78214854808
A586     13     1     2     0.290314352553
A587     11     1     3     0.365324848595
A588     16     6     15    -0.0708787069478
A589     7     2     9    -0.791209384637
A590     9     4     9    -0.353301290035
A591     13     1     16     0.00133777787584
A592     10     0     7     0.494577992474
A593     12     2     11    -0.391060584006
A594     7     1     12     0.858144658566
A595     14     3     0     0.233105660856
A596     5     5     0     0.805917370848
A597     16     5     2    -0.916091186925
A598     2     1     9    -0.225951351517
A599     1     5     16    -0.0589112603396
A600     13     1     6    -0.0901921313898
A601     2     2     15    -0.56831618732
A602     11     4     12    -0.409937330298
A603     10     3     16     0.652856309539
A604     10     4     9    -0.165227272781
A605     10     2     14     0.373720851866
A606     15     4     4     0.097348963448
A607     4     4     5     0.514603843684
A608     0     1     16    -0.518398018606
A609     0     2     0     0.798002199931
A610     16     4     2    -0.259735960024
A611     2     4     10     0.904589270844
A612     15     0     9    -0.0369666133043
A613     16     5     8     0.538935976538
A614     5     6     13     0.0997523244725
A615     5     1     1     0.165273117676
A616     5     6     6    -0.237518469198
A617     12     1     13    -0.266688369036
A618     7     0     15     0.518671620941
A619     12     4     6    -0.634519214267
A620     6     1     10    -0.529590906985
A621     7     1     7    -0.801567771516
A622     12     1     12    -0.773269655526
A623     10     1     12    -0.854582109228
A624     11     6     3     0.146750634711
A625     0     4     13    -0.224517493021
A626     6     5     3    -0.149561922733
A627     1     3     16    -0.89058657742
A628     14     0     3     0.506650696099
A629     14     4     4     0.527752721007
A630     10     2     3     0.902844210076
A631     5     2     11    -0.476377505296
A632     15     0     9     0.924514722324
A633     4     1     0     0.406209558289
A634     8     2     0     0.0323125465379
A635     15     6     1     0.881588753238
A636     14     4     8     0.953042209159
A637     3     0     3    -0.107875619396
A638     9     1     12    -0.730211789737
A639     12     1     3     0.389605880117
A640     10     5     1    -0.618261822772
A641     4     4     3    -0.803405375854
A642     10     5     5     0.970130294858
A643     15     2     11     0.205871299258
A644     9     1     0     0.908685303077
A645     14     3     1    -0.410809463198
A646     13     3     13     0.849095820136
A647     16     3     13    -0.215467994379
A648     16     0     12    -0.0823017357018
A649     10     2     4    -0.105037722571
A650     1     0     2     0.396515468711
A651     0     2     10     0.769197837442
A652     2     3     9     0.220505223425
A653     13     1     11    -0.152420626462
A654     10     1     7    -0.803286456824
A655     4     4     0    -0.936429025544
A656     11     0     1     0.758503460364
A657     4     2     1    -0.98387785737
A658     10     1     6     0.413897836553
A659     10     3     12     0.473777844545
A660     2     2     8    -0.679271744474
A661     8     1     8     0.499325964709
A662     14     2     5    -0.687670993708
A663     1     2     15    -0.748204737399
A664     12     0     16     0.643053188557
A665     13     2     0     0.118474738112
A666     15     5     15    -0.344841295343
A667     6     5     6    -0.836280645852
A668     12     4     11    -0.942827984774
A669     5     1     15    -0.847806094988
A670     6     6     0    -0.818521719993
A671     7     3     3     0.559724261494
A672     13     0     3     0.96762812938
A673     6     0     15     0.513466812328
A674     3     6     10     0.891228806887
A675     7     6     9    -0.515217912222
A676     2     2     2     0.443453176567
A677     2     1     16    -0.963182124037
A678     4     6     12     0.702965316874
A679     3     6     7    -0.143778215013
A680     2     0     5     0.910221994621
A681     1     3     14    -0.504192741368
A682     6     0     9     0.734935339696
A683     3     6     13     0.660695596681
A684     7     3     3     0.987348914282
A685     5     4     2    -0.462062047739
A686     2     4     9     0.618059743449
A687     15     0     5     0.0341293546443
A688     1     6     9    -0.487347014638
A689     4     2     11    -0.2902540542
A690     16     3     8     0.944017074401
A691     1     5     9     0.254607794273
A692     6     0     7    -0.59477607522
A693     4     3     15     0.335117049964
A694     8     6     13    -0.379249059398
A695     15     1     12    -0.978928134003
A696     10     5     16     0.528682810121
A697     4     0     10    -0.670403978324
A698     4     1     9    -0.144569336147
A699     9     5     14    -0.868193721617
A700     15     5     11    -0.0291887861399
A701     15     0     14    -0.535189654942
A702     13     6     8     0.0110898800846
A703     0     0     4    -0.374156204553
A704     3     6     0     0.306761099754
A705     15     5     5    -0.389310030426
A706     0     6     1     0.163670702386
A707     3     2     9    -0.922939704181
A708     9     2     8     0.748681612624
A709     0     0     16     0.13734410634
A710     8     0     4    -0.384964664645
A711     13     0     6    -0.312353955446
A712     16     2     14     0.408389480666
A713     1     2     6     0.874084154862
A714     2     3     16    -0.284871664084
A715     1     4     0     0.370291340681
A716     9     4     11     0.942955950658
A717     14     4     11    -0.354621191945
A718     11     2     15     0.495289788276
A719     1     6     5     0.803872785774
A720     14     2     0     0.327440092309
A721     3     6     8     0.0229611799727
A722     1     6     7     0.481784682407
A723     0     2     4     0.901627740382
A724     10     0     0    -0.333399753126
A725     2     4     10     0.776716341463
A726     1     5     15    -0.541474041665
A727     9     1     14     0.772979461965
A728     16     4     2     0.920367815482
A729     4     2     0     0.878954011029
A730     11     5     16    -0.476716744535
A731     7     2     16     0.768920259884
A732     14     4     10     0.621833350548
A733     10     6     1     0.612473550811
A734     5     4     0    -0.525907459289
A735     15     0     2     0.12166803206
A736     2     4     12    -0.914803949441
A737     10     2     13     0.315293406639
A738     12     6     8     0.589046121556
A739     6     2     6     0.610358980902
A740     11     0     6    -0.484171093462
A741     9     6     15    -0.283319192151
A742     3     4     15     0.491596779559
A743     2     3     5    -0.657683766828
A744     16     6     15     0.116048604828
A745     5     3     13     0.210717513651
A746     11     2     7    -0.78043700966
A747     0     1     4    -0.36890825077
A748     11     4     4    -0.385012793457
A749     7     0     10     0.266165360544
A750     7     3     4     0.608718657433
A751     3     4     12     0.0968054208163
A752     15     2     2     0.827470998646
A753     12     4     1     0.118764444568
A754     7     3     4    -0.118710501548
A755     11     3     13    -0.689618838806
A756     3     6     13    -0.227386411873
A757     5     6     1     0.206280751013
A758     13     5     10     0.236078859688
A759     2     2     10    -0.773145912721
A760     0     1     14     0.65032047471
A761     10     6     16     0.321124508038
A762     9     3     4     0.148999718343
A763     4     3     0     0.62960274024
A764     13     5     15    -0.182829158743
A765     11     2     8     0.74268605466
A766     5     3     2    -0.897985475787
A767     13     6     1     0.396233548361
A768     16     1     1     0.0310726899357
A769     11     4     4    -0.784839274079
A770     4     4     11     0.454792067485
A771     5     4     8     0.355377687488
A772     13     2     11     0.517384767149
A773     8     5     2    -0.206164672271
A774     11     3     3    -0.0526058060638
A775     12     0     5     0.909829254431
A776     1     2     8    -0.163574754301
A777     7     0     8     0.957438578869
A778     12     0     13     0.703432372235
A779     2     0     3     0.587811884334
A780     13     3     8     0.673569206834
A781     16     0     11     0.731088739414
A782     8     6     0     0.201009440559
A783     4     3     5    -0.413738726178
A784     5     5     11     0.715718324742
A785     7     6     15    -0.506541250611
A786     3     5     8    -0.538405179458
A787     4     4     3     0.915876571226
A788     13     1     1     0.499830868635
A789     2     4     3     0.576560628595
A790     4     6     12     0.76241396605
A791     3     5     11     0.976053707894
A792     0     4     7    -0.0649295021656
A793     10     3     1     0.904331073874
A794     2     4     6     0.776570278656
A795     0     1     9    -0.077673429944
A796     13     0     5     0.471516023804
A797     16     5     13    -0.984104830079
A798     10     5     16     0.836822501272
A799     13     3     14    -0.0195810391657
A800     15     6     12    -0.294672515212
A801     10     2     4     0.676589535055
A802     4     6     16    -0.308782914451
A803     9     6     10     0.472407481613
A804     3     2     13     0.315379178209
A805     14     1     1    -0.714497083553
A806     4     5     16     0.937589926722
A807     5     5     11     0.486978263411
A808     9     5     3    -0.0287334172294
A809     15     3     5     0.405753622995
A810     6     6     9     0.787772309862
A811     16     5     1     0.628235895435
A812     8     4     9    -0.540513446292
A813     16     5     6     0.37771003815
A814     5     3     14    -0.450395950668
A815     10     6     16    -0.975583822801
A816     11     5     1    -0.724777358502
A817     13     2     9    -0.74578554429
A818     7     6     10    -0.426075973636
A819     6     3     13    -0.844309496681
A820     3     2     13    -0.826741882252
A821     11     0     9     0.868976543454
A822     4     0     13    -0.240959912045
A823     0     2     15    -0.814261752636
A824     7     6     1    -0.44328733427
A825     14     1     14     0.803240419789
A826     7     4     15     0.705296753029
A827     7     3     12     0.924626923251
A828     8     6     4    -0.677547393869
A829     15     0     15     0.00743781734748
A830     2     5     5     0.211089742447
A831     0     5     2    -0.852176822702
A832     14     0     6     0.148991851314
A833     8     4     7    -0.919057887233
A834     9     4     10     0.0190158379182
A835     5     0     4     0.868510473016
A836     12     2     0    -0.875984996033
A837     8     0     15    -0.0316807684317
A838     8     2     7    -0.129469046753
A839     6     2     5     0.642310747026
A840     13     1     15    -0.665740106454
A841     12     1     10    -0.262062487629
A842     11     4     16    -0.393137469509
A843     7     6     15    -0.577307464002
A844     4     3     15    -0.211098518519
A845     3     5     10     0.359057935191
A846     10     5     1     0.0139345266685
A847     3     1     0    -0.138074798264
A848     13     3     7     0.0710562022309
A849     10     0     4    -0.0444340862662
A850     6     5     8    -0.279189224058
A851     15     4     1    -0.710637845647
A852     0     4     6     0.419129262612
A853     10     3     12     0.0509283746597
A854     11     2     13    -0.671621786641
A855     15     6     5     0.284564527242
A856     1     5     1     0.971322036191
A857     12     4     9    -0.747791783307
A858     4     5     13    -0.953966811668
A859     11     5     6    -0.799142179494
A860     2     0     9    -0.636726048828
A861     4     2     8     0.451417163477
A862     10     1     4    -0.189169902421
A863     9     4     12     0.155734606924
A864     2     3     10    -0.110614980659
A865     0     4     7     0.178050708933
A866     16     4     4     0.951205188211
A867     2     2     2     0.852094925659
A868     2     0     9     0.547777061333
A869     9     3     5     0.438483309115
A870     12     4     12     0.097909886975
A871     8     4     2     0.158320065909
A872     6     4     8     0.265537863659
A873     0     5     6     0.0568652674699
A874     9     6     11     0.886206690296
A875     15     6     3    -0.30908704702
A876     0     5     0     0.103313008911
A877     10     0     11     0.638326705528
A878     4     1     1     0.462770432001
A879     4     0     11     0.170597578973
A880     5     0     8    -0.821270870506
A881     2     6     15     0.609767838321
A882     15     6     0     0.0945840353524
A883     8     3     14     0.538694586684
A884     5     2     6     0.267045239765
A885     1     2     6    -0.692502235032
A886     14     1     12     0.00573157536567
A887     13     0     2    -0.876572289951
A888     14     5     14     0.672123480586
A889     3     4     12    -0.759386863293
A890     1     1     8    -0.404496071887
A891     7     2     14    -0.478579444658
A892     5     1     13    -0.189319425796
A893     4     3     3    -0.206264483479
A894     10     2     16    -0.807562268896
A895     2     4     7     0.443174037665
A896     6     3     1     0.973410981128
A897     6     6     8     0.169737030241
A898     16     1     14    -0.206526823013
A899     10     1     10    -0.279108457654
A900     7     2     9    -0.782457950891
A901     6     2     7     0.654103357804
A902     12     2     5     0.892387519448
A903     16     5     12     0.896680300333
A904     12     1     13    -0.537098600686
A905     7     0     14     0.636429135206
A906     16     2     3     0.536787964106
A907     4     3     12    -0.0400341675275
A908     11     3     14    -0.979929184001
A909     4     3     13     0.683079182913
A910     16     1     9    -0.0899892836171
A911     2     5     4     0.80920277668
A912     2     2     11     0.64696797865
A913     11     5     8     0.0168965631789
A914     3     1     0    -0.439074789134
A915     2     2     8     0.0589980507917
A916     0     3     1     0.30964623867
A917     3     6     5    -0.883772403405
A918     7     4     13    -0.584788457386
A919     16     0     16    -0.884118270793
A920     13     4     4    -0.624167322931
A921     15     0     15     0.866734432195
A922     4     5     4     0.993961989812
A923     15     5     8    -0.409277252042
A924     9     2     11     0.574716057586
A925     16     3     1    -0.195112631113
A926     3     6     14    -0.0968337563518
A927     2     5     6     0.725199775748
A928     4     0     8    -0.66754355417
A929     8     2     14    -0.00807131266962
A930     12     0     1     0.583246070492
A931     7     4     16    -0.77319764668
A932     4     4     9     0.669305898459
A933     15     4     1    -0.498298845816
A934     1     4     11    -0.155120113449
A935     5     2     1     0.455065974137
A936     0     2     12     0.558456583937
A937     15     4     1     0.956756373788
A938     16     5     15    -0.734373061266
A939     4     5     14    -0.981569804061
A940     14     1     5     0.435174582455
A941     1     0     4     0.664999500524
A942     9     1     6     0.266712628439
A943     10     5     9     0.618004880854
A944     13     6     4    -0.261917261899
A945     8     5     0    -0.13523026015
A946     0     6     9    -0.39895024258
A947     16     3     12    -0.28917890181
A948     2     0     5    -0.336993328285
A949     13     0     14    -0.994815382984
A950     15     1     12    -0.11216021704
A951     1     3     2     0.613769924706
A952     0     4     5    -0.281580413964
A953     14     4     0    -0.0514589354996
A954     8     5     6    -0.747300534344
A955     8     2     11    -0.0606217167077
A956     5     2     14    -0.718710173366
A957     5     0     10    -0.525162571629
A958     6     3     5    -0.109824727861
A959     10     3     10    -0.366900388146
A960     12     0     9    -0.0506294340294
A961     9     3     0     0.972661828189
A962     13     2     0    -0.407779399175
A963     1     2     4    -0.0525798655282
A964     4     6     0    -0.172269354473
A965     14     1     8    -0.604395554859
A966     16     4     5    -0.613340026792
A967     12     2     12     0.914739875855
A968     1     2     14     0.892646002287
A969     14     5     3     0.60892949195
A970     13     2     5    -0.707485012052
A971     2     2     1    -0.250648910839
A972     11     2     9    -0.183525116886
A973     7     3     3    -0.251680021328
A974     4     6     4     0.829597512125
A975     13     2     2     0.891312856719
A976     0     1     4     0.33479723534
A977     3     4     8    -0.313525220107
A978     0     6     15     0.285409338156
A979     3     6     3    -0.792715388753
A980     8     1     10     0.330839541948
A981     1     4     9     0.858298065085
A982     9     1     7     0.0365505231082
A983     3     2     11    -0.858583681433
A984     11     4     16     0.812144578699
A985     8     2     16    -0.796064091383
A986     2     2     13    -0.340425410947
A987     4     2     5     0.187130492282
A988     1     3     13    -0.350604589662
A989     1     5     5     0.126941782784
A990     7     1     0     0.26905987355
A991     10     2     6    -0.977290832399
A992     5     4     6    -0.22105434091
A993     5     0     16     0.206658605568
A994     16     1     5     0.705743134972
A995     16     2     12     0.189069258585
A996     11     3     8     0.468786287832
A997     15     3     10     0.00779887794442
A998     4     0     8     0.602484620545
A999     2     4     0    -0.134647464964
A1000     0     1     4    -0.841451112581
A1001     14     6     8     0.222030201109
A1002     16     5     5     0.358238368455
A1003     7     4     12    -0.662681948214
A1004     11     1     9    -0.147913310092
A1005     15     5     9     0.020876145518
A1006     6     4     0     0.539668652425
A1007     9     5     9     0.201809624729
A1008     15     6     11    -0.268227098335
A1009     11     2     8     0.276337656885
A1010     7     6     10     0.874725789066
A1011     6     6     15    -0.68375733728
A1012     2     3     6    -0.641705520606
A1013     0     0     3     0.522140476296
A1014     1     6     9    -0.509774398637
A1015     12     0     14     0.0277152397154
A1016     12     0     13    -0.347639064546
A1017     7     1     12    -0.0540645759243
A1018     5     0     12    -0.653875675714
A1019     3     6     2    -0.265487635243
A1020     10     5     5     0.66284255688
A1021     3     6     1     0.552228575903
A1022     7     5     6    -0.629772007555
A1023     15     5     11    -0.449085584854
A1024     6     1     9    -0.412361249482
A1025     4     4     7    -0.913298327242
A1026     9     5     11    -0.715794886287
A1027     5     4     14    -0.19134968863
A1028     12     5     1     0.355921977917
A1029     3     5     0    -0.0965727869726
A1030     1     3     11    -0.600671184979
A1031     16     2     10     0.87554821607
A1032     15     4     11     0.225330105287
A1033     13     5     15     0.0295659762662
A1034     7     6     12     0.55629022012
A1035     12     4     14     0.0102266202013
A1036     4     3     12     0.135532114171
A1037     16     4     1     0.0644430443287
A1038     0     0     1    -0.377130871805
A1039     16     4     4     0.357491927417
A1040     13     5     11     0.95359063989
A1041     6     5     9     0.293885091965
A1042     15     0     13     0.669688717077
A1043     4     6     3    -0.0390983111883
A1044     2     0     5     0.357300923277
A1045     1     2     6     0.204488681038
A1046     16     6     16    -0.617301367119
A1047     12     2     7     0.31152739188
A1048     14     0     11     0.0736602170878
A1049     9     6     16    -0.963922809528
A1050     4     0     1    -0.712248296914
A1051     1     0     8     0.808873374038
A1052     15     5     16     0.713164364503
A1053     15     6     8     0.800722187901
A1054     10     3     13    -0.788336832143
A1055     7     4     7     0.520419597499
A1056     6     4     12     0.150352627062
A1057     13     3     14    -0.682358899226
