material24

BOUNDARIES
Number of particles: 100
x-coordinate: 20
y-coordinate: 20
z-coordinate: 20
Epsilon: 20
Sigma: 20
Charge: 20

loop_
_symmetry_equiv_pos_as_xyz
  x,y,z
_cell_length_a          20
_cell_length_b          20
_cell_length_c          20
_cell_angle_alpha       90.0000
_cell_angle_beta        90.0000
_cell_angle_gamma       90.0000
loop_
_atom_site_label
_atom_site_fract_x
_atom_site_fract_y
_atom_site_fract_z
_atom_site_charge
#NET CHARGE: 0.0
A0     0     7     5    -0.0721122845956
A1     2     10     3    -0.0474649576691
A2     1     5     5     0.201407448847
A3     0     11     4    -0.234831661874
A4     1     9     0    -0.648152341117
A5     0     2     2     0.801153796408
