material31

BOUNDARIES
Number of particles: 100
x-coordinate: 20
y-coordinate: 20
z-coordinate: 20
Epsilon: 20
Sigma: 20
Charge: 20

loop_
_symmetry_equiv_pos_as_xyz
  x,y,z
_cell_length_a          20
_cell_length_b          20
_cell_length_c          20
_cell_angle_alpha       90.0000
_cell_angle_beta        90.0000
_cell_angle_gamma       90.0000
loop_
_atom_site_label
_atom_site_fract_x
_atom_site_fract_y
_atom_site_fract_z
_atom_site_charge
#NET CHARGE: 0.0
A0     2     1     5     0.492505337291
A1     1     1     7     0.374008696679
A2     0     2     7    -0.0302161683068
A3     9     5     7    -0.476449320868
A4     6     4     6     0.610112231914
A5     9     5     6    -0.97863483644
A6     8     0     4     0.708401808997
A7     4     3     0    -0.58209681413
A8     9     1     7     0.386228653877
A9     0     0     7    -0.503859589013
