material23

BOUNDARIES
Number of particles: 100
x-coordinate: 20
y-coordinate: 20
z-coordinate: 20
Epsilon: 20
Sigma: 20
Charge: 20

loop_
_symmetry_equiv_pos_as_xyz
  x,y,z
_cell_length_a          20
_cell_length_b          20
_cell_length_c          20
_cell_angle_alpha       90.0000
_cell_angle_beta        90.0000
_cell_angle_gamma       90.0000
loop_
_atom_site_label
_atom_site_fract_x
_atom_site_fract_y
_atom_site_fract_z
_atom_site_charge
#NET CHARGE: 0.0
A0     9     0     6     0.416637527031
A1     1     5     1    -0.382303308399
A2     0     2     0    -0.937140240193
A3     4     3     7     0.63675266861
A4     2     6     5     0.0242951812839
A5     1     1     2    -0.473523430283
A6     1     0     7     0.236915076117
A7     6     1     3     0.478366525833
