material25

BOUNDARIES
Number of particles: 100
x-coordinate: 20
y-coordinate: 20
z-coordinate: 20
Epsilon: 20
Sigma: 20
Charge: 20

loop_
_symmetry_equiv_pos_as_xyz
  x,y,z
_cell_length_a          20
_cell_length_b          20
_cell_length_c          20
_cell_angle_alpha       90.0000
_cell_angle_beta        90.0000
_cell_angle_gamma       90.0000
loop_
_atom_site_label
_atom_site_fract_x
_atom_site_fract_y
_atom_site_fract_z
_atom_site_charge
#NET CHARGE: 0.0
A0     18     1     9    -0.0910571502335
A1     2     1     5     0.968393075034
A2     12     4     9     0.480093030594
A3     8     3     4    -0.910229242365
A4     0     2     2    -0.487533021224
A5     18     0     4    -0.814658520077
A6     15     0     5     0.353040679329
A7     0     2     9    -0.243370158513
A8     2     1     3     0.371959448486
A9     14     0     7    -0.177585281461
A10     17     0     6     0.55094714043
