material18

BOUNDARIES
Number of particles: 100
x-coordinate: 20
y-coordinate: 20
z-coordinate: 20
Epsilon: 20
Sigma: 20
Charge: 20

loop_
_symmetry_equiv_pos_as_xyz
  x,y,z
_cell_length_a          20
_cell_length_b          20
_cell_length_c          20
_cell_angle_alpha       90.0000
_cell_angle_beta        90.0000
_cell_angle_gamma       90.0000
loop_
_atom_site_label
_atom_site_fract_x
_atom_site_fract_y
_atom_site_fract_z
_atom_site_charge
#NET CHARGE: 0.0
A0     10     2     3    -0.317595426763
A1     0     5     6     0.531800743342
A2     10     9     0    -0.174953183707
A3     3     13     1     0.937589256042
A4     4     9     3    -0.0793614291296
A5     8     1     6    -0.68299938961
A6     2     6     1    -0.226667096975
A7     9     1     2    -0.673319419086
A8     10     12     7     0.400125104455
A9     3     8     8     0.795608053094
A10     2     17     0    -0.215180361976
A11     8     1     0    -0.0293335112406
A12     10     1     1    -0.810311887738
A13     6     16     0    -0.306862004809
A14     0     3     8     0.567793333816
A15     6     3     5    -0.795239138855
A16     10     10     2    -0.190394929952
A17     3     5     8    -0.96141482198
A18     0     1     6    -0.239081103169
A19     3     9     2    -0.028941759098
A20     5     5     8    -0.347814461613
A21     9     3     8     0.906963554844
A22     9     14     6     0.370003014641
A23     6     5     4     0.380546679257
A24     9     2     8    -0.77647906913
A25     8     4     6     0.211993357874
A26     2     9     8     0.0966733047509
A27     3     2     4     0.236568510974
A28     9     6     5    -0.846807402175
A29     8     7     5    -0.738610006583
A30     4     7     3    -0.705985590638
A31     5     14     3    -0.210755236198
A32     2     7     0     0.772657708328
A33     8     4     2     0.714156356063
A34     2     5     2    -0.882075302923
A35     9     7     3    -0.976995905894
A36     8     5     3    -0.690176030793
A37     8     15     3    -0.405437263317
A38     5     9     5    -0.956841796694
A39     3     6     5    -0.0173186684771
A40     0     16     4     0.495160891264
A41     9     1     4    -0.145418099214
A42     0     15     6     0.996161765474
A43     10     14     0     0.104537735834
A44     9     8     8     0.933799227732
A45     2     10     1     0.327633829098
A46     2     0     1    -0.0541169029587
A47     0     4     4     0.476490683487
A48     7     14     7     0.689141485988
A49     3     0     7    -0.21343717105
A50     9     16     6     0.240128843344
A51     2     2     8    -0.364787859489
A52     3     9     2    -0.472708449898
A53     8     9     6     0.797330675717
A54     6     6     1     0.337694360946
A55     0     10     5    -0.774544270281
A56     5     7     0     0.0918782974111
A57     4     15     3    -0.593479248808
A58     10     13     7    -0.876064775233
A59     9     7     7     0.361387312263
A60     10     1     2     0.0190124256973
A61     2     14     6    -0.252959238356
A62     2     3     8     0.903172330832
A63     4     6     6     0.983434706412
A64     5     11     6    -0.781412795116
A65     3     12     5    -0.411405766728
A66     2     2     1    -0.698596867574
A67     0     14     0     0.00439806020704
A68     3     16     2     0.417093606646
A69     1     13     7    -0.283686891503
A70     7     16     0     0.107092772483
A71     9     11     7     0.447877881832
A72     1     0     2    -0.604722696357
A73     10     6     7     0.149283065849
A74     3     4     5    -0.0681290932235
A75     0     5     3     0.361457900589
A76     5     4     7    -0.876629059368
A77     10     2     0     0.236006442385
A78     1     16     2     0.919581459678
A79     5     5     5     0.602486320368
A80     5     16     0    -0.743411949475
A81     5     9     5     0.224686103041
A82     9     0     0     0.87689202925
A83     3     2     3     0.727748721598
A84     8     3     6     0.256078167195
A85     1     12     7     0.0786581872278
A86     9     5     1    -0.120008471791
A87     6     14     1     0.346411359529
A88     1     17     2     0.194793921622
A89     9     14     8     0.452062366526
A90     1     3     8     0.540419889939
