material8

BOUNDARIES
Number of particles: 100
x-coordinate: 20
y-coordinate: 20
z-coordinate: 20
Epsilon: 20
Sigma: 20
Charge: 20

loop_
_symmetry_equiv_pos_as_xyz
  x,y,z
_cell_length_a          20
_cell_length_b          20
_cell_length_c          20
_cell_angle_alpha       90.0000
_cell_angle_beta        90.0000
_cell_angle_gamma       90.0000
loop_
_atom_site_label
_atom_site_fract_x
_atom_site_fract_y
_atom_site_fract_z
_atom_site_charge
#NET CHARGE: 0.0
A0     0     6     0     0.665480705395
A1     18     3     2    -0.151382505326
A2     19     4     2    -0.0346857467025
A3     9     1     2     0.711804909627
A4     6     3     5    -0.0376866246342
A5     7     0     6     0.896198189889
A6     6     3     2    -0.633137449396
A7     2     5     2    -0.649121164375
A8     4     6     3    -0.702633293907
A9     1     3     1    -0.0576907912181
A10     3     3     4    -0.668301497429
A11     6     1     2     0.661155268077
