material0

BOUNDARIES
Number of particles: 10
x-coordinate: 20
y-coordinate: 20
z-coordinate: 20
Epsilon: 20
Sigma: 20
Charge: 20

loop_
_symmetry_equiv_pos_as_xyz
  x,y,z
_cell_length_a          20
_cell_length_b          20
_cell_length_c          20
_cell_angle_alpha       90.0000
_cell_angle_beta        90.0000
_cell_angle_gamma       90.0000
loop_
_atom_site_label
_atom_site_fract_x
_atom_site_fract_y
_atom_site_fract_z
_atom_site_charge
#NET CHARGE: 0.0
A0     2     7     4     0.901632343694
A1     0     0     10    -0.117040214656
A2     2     6     2     0.810614603125
A3     1     2     9     0.0991439119121
A4     0     0     0    -0.010356072528
A5     0     6     2     0.415890868397
A6     2     2     3    -0.638171821751
A7     0     5     3    -0.485739246958
A8     2     1     10    -0.138779730342
A9     2     1     4     0.835368413261
A10     0     1     5     0.658241107039
A11     1     2     12    -0.0045239200624
A12     3     1     4    -0.677110963451
A13     2     5     12    -0.844205805887
A14     1     4     7     0.0168370936793
A15     3     0     4    -0.586998996679
A16     3     2     3    -0.138620434114
A17     3     0     2     0.96972505476
A18     3     2     7    -0.579508794452
A19     1     1     4    -0.794970342081
A20     1     0     11    -0.901257340475
A21     2     7     0    -0.381311321047
A22     2     5     0     0.738290992364
A23     2     1     3     0.42917318658
A24     2     0     4    -0.0237116170557
A25     2     1     8     0.624213094553
A26     0     4     3     0.498525384882
A27     0     3     8    -0.305057854829
A28     1     3     3    -0.290195611791
A29     1     7     12    -0.890601817439
A30     0     1     2     0.435505256306
A31     1     7     7    -0.452361384984
A32     0     7     5    -0.229313320457
A33     0     0     10    -0.302851894174
A34     0     7     2     0.675634585681
A35     0     4     0    -0.952607855407
A36     1     0     5    -0.838427989676
A37     2     7     6     0.684627347906
A38     1     1     8    -0.0905248443414
A39     1     1     10     0.305262220802
A40     2     1     4     0.627119487176
A41     3     5     2    -0.636072435523
A42     2     3     0     0.866998203203
A43     2     4     9     0.99796916737
A44     0     7     8    -0.280450692533
