material0

BOUNDARIES
Number of particles: 11
x-coordinate: 20
y-coordinate: 20
z-coordinate: 20
Epsilon: 20
Sigma: 20
Charge: 20

loop_
_symmetry_equiv_pos_as_xyz
  x,y,z
_cell_length_a          20
_cell_length_b          20
_cell_length_c          20
_cell_angle_alpha       90.0000
_cell_angle_beta        90.0000
_cell_angle_gamma       90.0000
loop_
_atom_site_label
_atom_site_fract_x
_atom_site_fract_y
_atom_site_fract_z
_atom_site_charge
#NET CHARGE: -3.33066907388e-16
A0     13     0     9     0.904627425533
A1     12     0     2     0.979963080382
A2     11     0     4    -0.215554780549
A3     1     0     6     0.453109365676
A4     2     1     9     0.916062420637
A5     11     1     7    -0.108045201206
A6     10     1     12    -0.874328101454
A7     13     1     3    -0.330718642554
A8     8     0     7    -0.414954364114
A9     4     1     12     0.184689057824
A10     7     1     0    -0.213499368694
A11     8     1     12     0.597144359309
A12     0     0     0     0.678248912536
A13     5     0     10     0.501831889304
A14     13     0     10    -0.736495335587
A15     4     0     14    -0.520323556649
A16     5     0     9     0.046812337241
A17     5     0     2    -0.0669479952027
A18     12     0     0     0.926434568636
A19     6     1     11    -0.749941851922
A20     6     1     13    -0.712456328246
A21     13     0     2     0.412355679168
A22     12     1     13     0.0753321332042
A23     5     0     5    -0.701940896012
A24     10     1     9    -0.192126280054
A25     11     0     14     0.443621514118
A26     6     0     3    -0.195158611682
A27     1     0     12     0.757950190142
A28     12     1     2     0.838283479382
A29     13     1     13     0.489502950834
A30     11     0     5     0.614320290031
A31     9     1     1    -0.322618838014
A32     0     0     7    -0.438280066783
A33     0     0     10    -0.889772675335
A34     4     1     4     0.594480828155
A35     1     1     10     0.0684425650157
A36     3     1     0    -0.635323641566
A37     3     0     8     0.911818000155
A38     4     0     12    -0.397603948972
A39     5     0     14    -0.887894367085
A40     8     1     10     0.513968883998
A41     7     0     9    -0.919410510623
A42     10     1     13    -0.468578291569
A43     0     0     5     0.887108931387
A44     14     1     3    -0.0603393626032
A45     1     0     3     0.730291388576
A46     13     0     9     0.478817625546
A47     14     1     11     0.496724941468
A48     4     0     0     0.580063596391
A49     4     1     7     0.306210143207
A50     0     0     2     0.877504808199
A51     9     0     3    -0.571882287288
A52     9     0     1     0.0673573976636
A53     5     1     1    -0.401781082693
A54     5     0     12    -0.0407258117195
A55     9     1     5    -0.199369937783
A56     7     0     13     0.239126211742
A57     8     0     0    -0.101894982311
A58     4     0     12     0.363194605971
A59     13     0     2     0.205869518983
A60     9     0     5    -0.797390561636
A61     8     0     10    -0.138652451797
A62     1     1     10    -0.841086782006
A63     1     0     2     0.724666165804
A64     5     1     14    -0.826368844393
A65     14     0     10    -0.388709374583
A66     6     0     0     0.233576871733
A67     11     1     5     0.96740730771
A68     14     1     12     0.444359450697
A69     12     0     0     0.0828602520198
A70     10     0     5     0.343981707541
A71     9     1     1    -0.55753539185
A72     6     1     2    -0.00250843133459
A73     7     0     2    -0.535826642822
A74     5     1     11    -0.0938206785899
A75     6     0     5    -0.306729989011
A76     5     1     14     0.654601110844
A77     6     1     11     0.880936709247
A78     8     0     6     0.0440119001522
A79     0     0     10    -0.0498552190178
A80     1     0     3     0.896688248681
A81     2     1     14    -0.195712241016
A82     7     1     11     0.871961887146
A83     10     1     13    -0.990364219381
A84     4     1     12     0.426600296826
A85     3     0     1     0.954018743906
A86     11     0     11    -0.169109146114
A87     12     0     0    -0.924274835101
A88     13     0     12    -0.20119000796
A89     7     0     4     0.186300232988
A90     13     0     6    -0.983262566901
A91     4     0     4    -0.08474276867
A92     9     1     2    -0.957251850619
A93     5     1     14    -0.374718053054
A94     1     0     12    -0.31468123709
A95     11     0     14     0.54203156316
A96     9     1     8    -0.00618643870316
A97     3     0     5     0.737875481729
A98     11     0     13    -0.00234855164282
A99     5     0     13     0.812695038697
A100     0     1     5     0.433477314985
A101     9     0     13     0.045287133177
A102     3     1     4     0.091659575431
A103     2     1     0    -0.736175437844
A104     5     1     11    -0.560740081111
A105     14     1     12     0.720143887806
A106     12     1     4     0.895115975071
A107     5     0     1    -0.758515225303
A108     11     0     3    -0.0725071441838
A109     7     0     2     0.976066468163
A110     5     1     7    -0.520009880752
A111     10     0     10    -0.861738350052
A112     7     1     0     0.604931118184
A113     10     0     14     0.896927403962
A114     8     0     5    -0.718535120318
A115     8     0     1    -0.160576315424
A116     4     0     14    -0.746798548035
A117     5     1     2     0.0833334652149
A118     5     0     2     0.637149075149
A119     0     0     2    -0.617194664705
A120     5     0     2    -0.515073103849
A121     2     1     9    -0.661647134853
A122     1     0     6    -0.161209007831
A123     4     0     10     0.793878610617
A124     11     1     2    -0.663442745758
A125     1     0     9    -0.720136026044
A126     7     0     4     0.913343197795
A127     6     1     10    -0.78930525635
A128     10     0     12     0.213811020677
A129     13     1     13     0.808983121093
A130     2     0     1     0.824080017986
A131     3     1     2    -0.20257687605
A132     9     1     2    -0.598868448695
A133     10     0     2    -0.897277130655
A134     0     0     2     0.672099823914
A135     13     1     14     0.742817649096
A136     5     0     8    -0.861464653031
A137     4     0     4     0.364721660783
A138     13     0     6    -0.843511047461
A139     10     0     11     0.399988615128
A140     5     1     4     0.738537813013
A141     12     0     5    -0.58482333543
A142     5     1     7    -0.805908831177
A143     0     1     13    -0.602327371858
A144     13     1     9     0.541763586097
A145     3     1     8     0.537513389983
A146     13     1     12    -0.285043451174
A147     5     0     7    -0.824088564078
A148     12     0     3    -0.27590326173
A149     1     0     2     0.81745974839
A150     4     1     13    -0.428555366695
A151     10     0     12    -0.376740864305
A152     1     1     9    -0.11354355891
A153     5     0     9    -0.439299010534
A154     1     0     4     0.050788454888
A155     4     0     2     0.249514381315
A156     9     1     6    -0.46433273573
A157     3     1     13     0.829915745455
A158     2     1     3    -0.131650650297
A159     13     1     7     0.573316289241
A160     14     1     4     0.927047059927
A161     7     1     11     0.736678745006
A162     3     0     2    -0.546839634856
A163     13     1     8     0.197258085685
A164     5     1     13    -0.669039845422
A165     13     0     5     0.117467558877
A166     13     1     1     0.502374229521
A167     8     1     12    -0.526209460665
A168     13     1     5     0.897266744513
A169     7     0     7    -0.222630375026
A170     9     0     9    -0.603161352456
A171     12     1     13     0.0403208242464
A172     1     1     8    -0.743781223624
A173     4     1     3     0.751373885762
A174     13     1     8    -0.365596951613
A175     10     0     4     0.551526363765
A176     2     0     1    -0.0178075879746
A177     9     0     3    -0.485229374922
A178     3     0     11    -0.602305324817
A179     9     0     2     0.278256406414
A180     2     1     13    -0.95480951033
A181     6     0     8     0.11670999024
A182     8     1     8     0.605697688347
A183     13     1     0    -0.399130469245
A184     4     0     6    -0.626381245233
A185     4     1     1    -0.876127804117
A186     11     1     7     0.690128784348
A187     10     1     0     0.93476575687
A188     13     1     7    -0.38425892387
A189     8     0     5    -0.523129025256
A190     10     1     0     0.363614132806
A191     14     0     12    -0.00482636342583
A192     1     0     11    -0.632829592902
A193     2     1     2    -0.0944444381791
A194     1     0     6    -0.818841295271
A195     13     0     3    -0.890852110399
A196     8     0     11    -0.633911990311
A197     3     1     4    -0.458541676243
A198     11     1     12     0.426639283828
A199     11     0     5     0.331418596016
A200     11     0     14     0.508680976351
A201     7     1     4    -0.940342596218
A202     4     1     13     0.0639004789062
A203     9     0     7    -0.609641206571
A204     9     1     1    -0.0410328158822
A205     4     0     9     0.354605409331
A206     3     0     8     0.605742976381
A207     7     0     4    -0.18163428282
A208     6     1     12     0.590287461863
A209     7     0     6    -0.85096249571
A210     3     0     1    -0.590647086282
A211     12     1     9     0.915353215624
A212     6     1     5    -0.0297559223566
A213     14     1     7    -0.761574889451
A214     9     1     9     0.486820894385
A215     3     1     6    -0.521126031708
A216     2     1     9     0.822971526723
A217     2     0     10     0.243710449834
A218     2     0     9     0.920215256167
A219     12     0     12     0.880797138851
A220     14     0     2    -0.861276787606
A221     9     0     10    -0.23485907262
A222     13     1     9     0.942856101992
A223     8     1     14    -0.542133908121
A224     8     1     9    -0.818219939338
A225     6     1     2    -0.142706658541
A226     10     1     5     0.115081158019
A227     6     0     10     0.0423852791136
A228     9     0     0     0.801387070034
A229     8     1     13    -0.588934230101
A230     12     1     14    -0.208097990079
A231     11     0     5     0.838665401143
A232     7     0     12     0.721722575351
A233     13     1     8    -0.284576217653
A234     2     1     8    -0.481589884206
A235     1     0     13     0.649044606621
A236     6     1     5    -0.784395201137
A237     13     1     7     0.765753943981
A238     3     0     7    -0.866147238206
A239     9     1     9     0.803616011359
A240     4     0     9     0.810514798825
A241     4     1     1     0.461399319634
A242     7     0     11     0.191546282876
A243     8     1     14    -0.875942353394
A244     1     1     4     0.908126925219
A245     1     1     11     0.76002943823
A246     4     0     5    -0.43106265721
A247     10     0     10    -0.476188215931
A248     11     1     12    -0.316917477832
A249     7     1     0     0.859913550586
A250     2     0     5    -0.549561946629
A251     5     0     13     0.0182336189755
A252     5     0     11     0.0682746414384
A253     13     1     3    -0.59843415435
A254     0     0     9    -0.914720057275
A255     2     1     3    -0.203862276579
A256     9     1     11    -0.828778277463
A257     8     0     7     0.959436146263
A258     0     0     8     0.882664698715
A259     5     1     14    -0.488220140935
A260     0     0     13     0.0796242054537
A261     6     1     13    -0.0669883775698
A262     3     1     4    -0.569471150028
A263     13     0     11     0.1722028505
A264     4     0     1    -0.218429426172
A265     4     0     9    -0.512081490157
A266     4     0     5    -0.925722458506
A267     8     1     7    -0.575971374663
A268     10     0     7     0.75923997731
A269     13     0     4     0.926711180292
A270     3     0     11    -0.499809879232
A271     7     0     0     0.721438430213
A272     4     1     4     0.100527026435
A273     0     0     13    -0.0421774245984
