material3

BOUNDARIES
Number of particles: 100
x-coordinate: 20
y-coordinate: 20
z-coordinate: 20
Epsilon: 20
Sigma: 20
Charge: 20

loop_
_symmetry_equiv_pos_as_xyz
  x,y,z
_cell_length_a          20
_cell_length_b          20
_cell_length_c          20
_cell_angle_alpha       90.0000
_cell_angle_beta        90.0000
_cell_angle_gamma       90.0000
loop_
_atom_site_label
_atom_site_fract_x
_atom_site_fract_y
_atom_site_fract_z
_atom_site_charge
#NET CHARGE: 0.0
A0     15     1     0     0.905522470765
A1     13     3     3     0.427098434415
A2     14     5     2    -0.828847954222
A3     4     1     0    -0.328864106106
A4     0     1     4    -0.242909351698
A5     16     5     3    -0.0260366042293
A6     4     1     2     0.413431551014
A7     1     3     4     0.816597253717
A8     1     5     2    -0.690308667696
A9     16     3     0    -0.740526432584
A10     7     5     1    -0.454821346135
A11     16     6     1     0.307065236853
A12     17     4     0    -0.146124668976
A13     11     5     3     0.859104203553
A14     10     2     1     0.518509106771
A15     17     4     3    -0.788889125442
