material34

BOUNDARIES
Number of particles: 100
x-coordinate: 20
y-coordinate: 20
z-coordinate: 20
Epsilon: 20
Sigma: 20
Charge: 20

loop_
_symmetry_equiv_pos_as_xyz
  x,y,z
_cell_length_a          20
_cell_length_b          20
_cell_length_c          20
_cell_angle_alpha       90.0000
_cell_angle_beta        90.0000
_cell_angle_gamma       90.0000
loop_
_atom_site_label
_atom_site_fract_x
_atom_site_fract_y
_atom_site_fract_z
_atom_site_charge
#NET CHARGE: 0.0
A0     8     0     19     0.36806214179
A1     14     1     11    -0.428453291496
A2     15     6     4    -0.689354349892
A3     5     6     0    -0.118410481981
A4     5     0     12     0.54493771271
A5     9     7     4    -0.139176644063
A6     18     4     1     0.708929844929
A7     15     2     1    -0.0527756913443
A8     5     0     16     0.26399252964
A9     4     6     6     0.0721248903324
A10     11     2     12    -0.33916557757
A11     0     4     10     0.228804286011
A12     3     4     6    -0.849558184282
A13     4     1     9     0.471486948113
A14     11     1     9    -0.148467664515
A15     13     4     3     0.768320189946
A16     3     2     11     0.727175556439
A17     2     6     11     0.675041567424
A18     19     4     8    -0.657978869274
A19     1     6     14     0.21252009872
A20     18     7     3     0.857489633234
A21     9     1     4    -0.422866771538
A22     12     6     18    -0.293428326175
A23     5     0     10    -0.450841005935
A24     4     0     13     0.58193209086
A25     15     0     11    -0.817093531319
A26     13     0     6    -0.141176283908
A27     15     6     2    -0.339783488027
A28     9     2     11     0.139142861839
A29     16     0     14    -0.385861820173
A30     6     5     19     0.818675838533
A31     2     2     5     0.848240686381
A32     10     2     4    -0.136778529502
A33     11     7     10    -0.692301424849
A34     4     3     4     0.814706100911
A35     9     3     13     0.586241953527
A36     7     7     13     0.946697217703
A37     6     2     12     0.810631683518
A38     12     0     17    -0.166566241937
A39     10     4     13    -0.590366013758
A40     9     5     19    -0.325928729622
A41     9     4     14    -0.653758561854
A42     19     0     12    -0.71018921341
A43     8     0     5     0.745182185714
A44     10     4     18    -0.364507438549
A45     9     6     14    -0.409531613359
A46     18     1     10     0.591347293072
A47     3     3     19     0.00766633735356
A48     12     7     19    -0.829632477238
A49     15     4     14    -0.592496072157
A50     17     3     2    -0.0591642749068
A51     15     5     2     0.729592192136
A52     0     4     17     0.478679857168
A53     0     7     15     0.837572905921
A54     19     2     11     0.708039455664
A55     12     5     2    -0.323629932528
A56     1     2     13    -0.105461457695
A57     15     3     8    -0.318292068559
A58     19     2     3    -0.757130733905
A59     15     1     6    -0.523733127988
A60     11     4     13    -0.145692318051
A61     17     7     16     0.546337647108
A62     9     6     3    -0.556749428576
A63     11     1     14    -0.207036299881
A64     3     4     1     0.0623535359744
A65     6     6     11     0.00898194000385
A66     9     4     4    -0.641469171445
A67     14     7     14    -0.690858593292
A68     10     0     3    -0.172041116372
A69     19     0     18    -0.726944959515
A70     13     4     19     0.548436011275
A71     13     7     13    -0.329318111778
A72     9     6     11     0.945380388133
A73     7     6     5     0.434345028019
A74     2     3     8    -0.629243606616
A75     13     6     8    -0.505553474581
A76     6     6     4    -0.770509868209
A77     6     7     10     0.367654996422
A78     19     7     17     0.7525532351
