material32

BOUNDARIES
Number of particles: 100
x-coordinate: 20
y-coordinate: 20
z-coordinate: 20
Epsilon: 20
Sigma: 20
Charge: 20

loop_
_symmetry_equiv_pos_as_xyz
  x,y,z
_cell_length_a          20
_cell_length_b          20
_cell_length_c          20
_cell_angle_alpha       90.0000
_cell_angle_beta        90.0000
_cell_angle_gamma       90.0000
loop_
_atom_site_label
_atom_site_fract_x
_atom_site_fract_y
_atom_site_fract_z
_atom_site_charge
#NET CHARGE: 0.0
A0     8     12     5    -0.728111968478
A1     9     14     4    -0.33603950365
A2     7     4     5     0.990886332155
A3     2     1     0     0.850036661895
A4     10     2     2    -0.929866053626
A5     1     2     2     0.280967846015
A6     2     3     3    -0.779729042354
A7     7     14     2     0.351600041518
A8     9     14     0     0.889286368821
A9     3     13     0     0.109393224963
A10     7     4     0    -0.657820173694
A11     5     11     3     0.0140508170207
A12     4     4     1     0.603986616576
A13     11     9     0    -0.658641167161
