material33

BOUNDARIES
Number of particles: 100
x-coordinate: 20
y-coordinate: 20
z-coordinate: 20
Epsilon: 20
Sigma: 20
Charge: 20

loop_
_symmetry_equiv_pos_as_xyz
  x,y,z
_cell_length_a          20
_cell_length_b          20
_cell_length_c          20
_cell_angle_alpha       90.0000
_cell_angle_beta        90.0000
_cell_angle_gamma       90.0000
loop_
_atom_site_label
_atom_site_fract_x
_atom_site_fract_y
_atom_site_fract_z
_atom_site_charge
#NET CHARGE: 0.0
A0     11     4     11     0.837248869223
A1     6     2     7     0.165518708526
A2     11     5     12    -0.866211391057
A3     9     0     4     0.624256698613
A4     0     4     6     0.364029842705
A5     3     1     19     0.401635750423
A6     12     2     6    -0.955164043851
A7     5     3     0     0.984037818798
A8     9     0     17    -0.585078805316
A9     0     6     17    -0.37938417266
A10     12     3     14    -0.935872735934
A11     0     4     2     0.861166421312
A12     3     6     6    -0.374086990538
A13     7     4     9     0.0387124711785
A14     11     3     15     0.550140009968
A15     3     0     8     0.316708984577
A16     7     6     17     0.396986824372
A17     6     6     11     0.965975770895
A18     10     3     2    -0.406815139363
A19     3     4     6    -0.182902839493
A20     7     3     1     0.667941416727
A21     6     4     19     0.11238855547
A22     7     4     6    -0.76171459728
A23     2     6     15     0.596995136496
A24     9     2     3    -0.711433799231
A25     2     1     6     0.68456966824
A26     1     2     16    -0.48798544166
A27     0     4     1     0.308277042076
A28     8     1     17     0.839495118843
A29     4     5     18     0.130048209123
A30     2     6     11    -0.316408959796
A31     9     2     7     0.0833293053914
A32     1     1     15     0.0781684829166
A33     2     3     4     0.198373820319
A34     11     4     16     0.568591048179
A35     9     6     0    -0.398567645294
A36     4     4     15    -0.607063054267
A37     6     1     9     0.810274143575
A38     12     6     11     0.737816938831
A39     10     3     0    -0.638493251762
A40     12     1     2     0.197133166476
A41     5     6     11    -0.523172196859
A42     0     6     12    -0.512422223874
A43     3     3     10    -0.2918195558
A44     6     0     9     0.878777166521
A45     1     4     5     0.674299437467
A46     11     0     1    -0.559243974418
A47     9     4     15    -0.584949567315
A48     8     3     7     0.584912841488
A49     6     3     10    -0.198915127885
A50     5     4     17    -0.333013529996
A51     2     4     13     0.32964819952
A52     7     2     8     0.485710032087
A53     9     2     0    -0.73548266656
A54     3     0     9    -0.705674852762
A55     12     6     13    -0.973887923825
A56     12     3     19     0.303317911697
A57     5     5     18    -0.937417278546
A58     6     4     13    -0.924229674455
A59     11     6     5     0.375309762408
A60     5     1     17     0.444636572407
A61     9     0     7    -0.498821982753
A62     1     1     13    -0.594550748311
A63     3     1     17    -0.604267188224
A64     9     1     14    -0.276042469876
A65     2     4     10     0.105221028792
A66     4     6     3     0.68104399533
A67     11     4     1    -0.221518356207
A68     5     1     19    -0.634403531531
A69     1     3     2    -0.516360268665
A70     0     5     17    -0.750725870106
A71     9     5     4     0.126672525253
A72     9     4     12    -0.0956562551021
A73     11     5     17     0.240157461446
A74     6     1     18    -0.5655797503
A75     0     0     5     0.0244211526581
A76     10     1     2    -0.941505107239
A77     4     5     5     0.24988070203
A78     4     2     11    -0.167878698153
A79     2     3     18     0.482017945944
A80     9     2     0    -0.51581821017
A81     1     3     15     0.644748919716
A82     10     2     19     0.0173640325862
A83     4     0     6    -0.7893573023
A84     5     6     3     0.754814303117
A85     10     3     16    -0.373096356186
A86     2     5     17     0.883337981851
A87     5     4     5    -0.761971705011
A88     6     0     8     0.336621635427
A89     12     6     10     0.343313926807
A90     7     0     6    -0.0698370462507
A91     12     0     4     0.020440497222
A92     5     3     5    -0.15526359343
A93     12     5     0     0.709683900589
A94     3     3     12    -0.520564550982
A95     2     4     2    -0.484553864511
A96     3     2     6     0.647588865419
A97     6     0     19    -0.489699638239
A98     6     1     9     0.650419206704
A99     7     6     12    -0.428877692248
A100     11     6     9     0.431721988956
A101     3     4     1     0.118387735279
A102     7     2     1     0.828408846779
A103     8     4     1     0.991770374415
A104     10     1     10     0.198398057385
A105     11     3     2    -0.151054745009
A106     0     5     0    -0.107247566424
A107     5     5     12     0.209136278154
A108     8     2     19     0.396645093391
A109     10     2     17    -0.8250465274
A110     4     2     7    -0.62949089118
A111     11     4     9    -0.479778262783
A112     2     1     5     0.289958013614
A113     0     2     19    -0.905249232961
A114     12     0     18    -0.638828854276
A115     6     6     3     0.704022855358
A116     3     3     13     0.441134955392
A117     12     2     17    -0.183482360937
A118     7     0     10    -0.0770953937057
A119     4     5     12     0.582735461301
A120     9     2     15     0.590879039841
A121     6     0     4    -0.346924940577
A122     9     1     16     0.735129556924
A123     8     5     12    -0.439268675955
A124     8     4     7     0.679735489167
A125     5     4     0    -0.861509162935
A126     12     0     12    -0.0533208935443
A127     9     6     2    -0.333584685813
A128     10     6     17     0.14668018873
A129     3     5     10     0.712103256144
A130     5     2     6    -0.0102438524571
A131     11     1     16    -0.565754036887
A132     0     1     15    -0.141464459294
A133     9     2     6     0.671128034202
A134     0     1     16     0.308876108528
A135     3     4     8    -0.060138357664
A136     11     3     0    -0.738709303988
A137     0     1     5    -0.674329705299
A138     3     3     10    -0.47907926782
A139     12     4     13     0.0454923018692
A140     4     1     1    -0.410468162231
A141     3     3     5    -0.337313862871
A142     10     1     1    -0.928723956482
A143     4     4     18     0.434855835233
A144     0     3     17    -0.183380481967
A145     2     6     1    -0.214716542862
A146     11     2     14     0.107296040928
A147     3     4     7    -0.264376304509
A148     7     5     4     0.15822255017
A149     2     3     14     0.558633239945
A150     11     5     18     0.247103533387
A151     8     4     4    -0.699595844361
A152     4     2     14     0.55063309622
A153     7     0     18    -0.61030567351
A154     5     0     0     0.219601336901
A155     4     2     5    -0.372553942651
A156     5     1     17     0.719806609961
A157     3     4     14    -0.211133593714
A158     7     1     2    -0.0483233422279
A159     11     1     3     0.39697301235
A160     5     2     9     0.326031182134
A161     10     5     17    -0.821132166622
A162     5     0     19     0.309655427797
A163     12     3     13    -0.0311074029368
A164     2     0     5     0.0856293799613
A165     7     5     11     0.0182492054669
A166     1     1     17     0.854715164045
A167     4     4     18     0.797838678228
A168     3     0     1     0.836824418362
A169     2     6     6    -0.853152616114
A170     3     4     7    -0.119349553251
A171     9     6     19    -0.673327077638
A172     3     2     3     0.294154993438
A173     6     4     18     0.0327816142168
A174     0     5     8     0.516763794557
A175     1     4     4    -0.674772175832
A176     4     4     7     0.117213170652
A177     4     3     0    -0.451934677713
A178     2     4     13    -0.27445583933
A179     1     2     18     0.539710795083
A180     11     4     7    -0.941548568795
A181     1     6     8     0.205854844731
A182     8     6     10    -0.317133451141
A183     11     0     5     0.0698819698704
A184     2     4     18     0.245270933756
A185     6     5     8     0.933963899439
A186     11     1     1    -0.0363736080813
A187     7     3     9    -0.390232124617
A188     4     4     10    -0.348524135466
A189     2     1     18    -0.537068336946
A190     11     5     17     0.266461197954
A191     7     3     5    -0.285641343633
A192     5     6     9     0.294917935389
A193     10     5     10    -0.191585513737
A194     9     0     18    -0.22728994783
A195     12     6     9    -0.323151964144
A196     0     6     18     0.350983206382
A197     0     2     6     0.866054885354
A198     5     4     12     0.106182747591
A199     9     2     13    -0.776943878577
A200     4     4     12     0.371208668021
A201     10     4     10     0.666894039823
A202     0     0     5     0.00508400980521
A203     9     3     11    -0.94672037357
A204     2     2     15    -0.479504222751
A205     0     4     7    -0.238014479849
A206     4     2     14     0.1340897726
A207     6     3     16    -0.421136962232
A208     9     2     18    -0.843084662898
A209     0     0     9    -0.204312617589
A210     5     6     17     0.419012093623
A211     2     5     5    -0.1890536295
A212     4     4     15    -0.455130991216
A213     6     3     15    -0.0552483526162
A214     0     1     14    -0.619861256821
A215     7     2     16     0.822704511374
A216     11     2     15     0.851362004177
A217     1     4     11     0.651764074867
A218     7     0     4     0.0544079606701
A219     3     2     9     0.48455627596
A220     9     5     1     0.601573100324
A221     10     4     6    -0.428808179956
A222     7     1     10    -0.876281232733
A223     3     2     2    -0.119671709572
A224     10     1     3    -0.37669521097
A225     0     4     13    -0.314586399023
A226     4     4     4     0.787286505443
A227     8     3     8    -0.707376728345
A228     2     4     18     0.396781724022
A229     0     3     15     0.087489895807
A230     1     1     0    -0.967063910421
A231     7     3     18    -0.990888704315
A232     7     1     1    -0.194389752861
A233     0     3     6    -0.539902960202
A234     9     2     7    -0.818931344623
A235     6     2     6    -0.499152539691
A236     5     1     17     0.746834745963
A237     1     6     7    -0.843869520827
A238     5     6     19     0.391642516532
A239     3     3     19    -0.312908361001
A240     2     0     1     0.174733421543
A241     11     1     3     0.232849428375
A242     6     1     12     0.950291416127
A243     3     2     5    -0.702351410735
A244     3     4     7     0.345412465564
A245     1     6     13    -0.323743316986
A246     2     0     3    -0.70227317388
A247     8     4     7     0.62009571997
A248     3     3     15     0.694885209313
A249     2     3     10    -0.37181033244
A250     9     5     18     0.935984120035
A251     1     2     6     0.424113434518
A252     5     0     4     0.58851415386
A253     11     1     4     0.775905062278
A254     2     4     18    -0.288191794525
A255     5     1     6    -0.156991485943
A256     4     2     13     0.646015543512
A257     2     5     15     0.627261597641
A258     10     2     8     0.288733831955
A259     3     6     12    -0.985238551547
A260     2     5     3     0.397880623751
A261     9     0     10     0.571826794803
A262     8     3     7    -0.381760626769
A263     4     6     10     0.530426544994
A264     4     2     7     0.702817264032
A265     9     5     15     0.226339139304
A266     3     1     17     0.53281148613
A267     2     2     15     0.695357088026
A268     8     0     12    -0.252068583611
A269     6     2     5     0.65915780997
A270     9     6     11     0.509038634689
A271     5     3     13     0.419349735729
A272     4     0     9    -0.245185424522
A273     10     0     11     0.411189677519
A274     8     2     8     0.087415190433
A275     4     3     9    -0.933846179044
A276     11     3     7    -0.351876610257
A277     6     6     14    -0.949069195187
A278     1     0     11     0.243465448121
A279     8     0     19     0.0930479814537
A280     11     2     8     0.05078031644
A281     9     2     15    -0.493201980839
A282     2     4     2     0.38085177019
A283     9     6     15     0.348613085132
A284     11     4     9     0.646305205286
A285     7     6     10    -0.404287708439
A286     4     2     9     0.737347213024
A287     7     5     9    -0.474461154436
A288     1     6     2     0.629303864773
A289     11     4     17     0.492775291729
A290     12     0     2    -0.904147355004
A291     7     6     1    -0.823425145313
A292     7     2     2    -0.342419767815
A293     0     4     1    -0.927121347422
A294     7     6     8     0.973705089972
A295     10     4     10     0.942796013461
A296     9     2     3     0.0383710010217
A297     5     5     18    -0.19060923648
A298     11     6     10    -0.113803624915
A299     2     6     11     0.92220051025
A300     0     4     6    -0.904045840792
A301     1     0     1    -0.950788908422
A302     4     0     2     0.452336687864
A303     9     4     13     0.543527149702
A304     4     4     8    -0.666902723363
A305     8     2     14    -0.901835819042
A306     3     2     0    -0.72439942688
A307     0     6     9    -0.189361703343
A308     11     5     11    -0.540219507231
A309     6     2     16     0.429207447155
A310     12     2     17    -0.988116588058
A311     11     0     16    -0.811193350382
A312     1     6     2     0.135247431254
A313     11     0     10     0.358242028984
A314     12     6     7    -0.994782555231
A315     8     3     16    -0.301817708713
A316     9     1     16     0.709816893332
A317     9     1     6     0.0507491760304
A318     1     4     11    -0.121428142701
A319     2     5     9    -0.853891465827
A320     8     6     19    -0.321037753857
A321     12     5     19     0.588857662424
A322     1     0     14    -0.109759128824
A323     6     2     7     0.832319944567
A324     10     1     16     0.254649325379
A325     10     1     5     0.401758339577
A326     12     2     4     0.211318739638
A327     6     0     17    -0.0310685288358
A328     3     2     3     0.672930493886
A329     4     0     17     0.150342422736
A330     10     1     18     0.693647047192
A331     8     1     0     0.439326954166
A332     9     2     0    -0.852609890971
A333     11     2     17    -0.802012463799
A334     4     3     0     0.514169187015
A335     6     6     1     0.046514484891
A336     9     2     14    -0.728446178602
A337     8     2     11     0.992590197149
A338     11     3     0    -0.711725247304
A339     9     5     10     0.194033217145
A340     9     0     1    -0.339408312881
A341     1     5     2    -0.216345384456
A342     12     2     5     0.737727119438
A343     2     3     15     0.458345265103
A344     8     6     11    -0.0628106141883
A345     9     3     1     0.136463333248
A346     1     3     1    -0.927329894101
A347     2     0     6     0.582102390518
A348     12     6     0     0.317457544371
A349     7     0     17     0.899683320063
A350     4     5     19    -0.284890192083
A351     3     4     0    -0.49008554227
A352     1     4     0    -0.169775318274
A353     3     1     14     0.846238502651
A354     12     6     2     0.82223303766
A355     0     4     3    -0.0912580646178
A356     8     5     2    -0.0180323271213
A357     5     2     15     0.235193617282
A358     9     6     18     0.493587945681
A359     12     0     15    -0.950372983375
A360     3     3     5    -0.00374589641534
A361     4     6     4    -0.341920796281
A362     6     1     4     0.718007140966
A363     2     1     19     0.108781116174
A364     8     1     12     0.467901067588
A365     11     0     2    -0.663751064862
A366     2     5     5     0.377502152497
A367     6     2     1     0.365091955671
A368     6     5     10     0.877431572199
A369     8     2     6     0.0771975890036
A370     2     6     2     0.986265293721
A371     9     5     16    -0.603184940216
A372     10     2     4    -0.967464867483
A373     10     4     3     0.346635011531
A374     4     6     9     0.832891176315
A375     8     4     1    -0.655012788424
A376     4     4     12     0.979414109558
A377     1     0     9    -0.710214890375
A378     1     3     4    -0.311860977627
A379     1     1     11     0.673641172548
A380     2     0     19     0.732765275862
A381     2     0     5    -0.668010212424
A382     4     3     4    -0.154326236826
A383     10     1     3    -0.138230813761
A384     6     1     11    -0.529084330635
A385     8     2     19    -0.732004353827
A386     2     0     19     0.376681384753
A387     10     0     5     0.375082666544
A388     9     6     15    -0.904935836184
A389     8     5     18    -0.927528591089
A390     4     0     8    -0.0413090085823
A391     1     5     2    -0.17094574073
A392     4     0     6     0.0567018088048
A393     10     6     16     0.374843094416
A394     9     5     8    -0.644281086743
A395     5     0     6    -0.124385487922
A396     5     2     3    -0.164018910784
A397     12     0     15     0.363397092797
A398     12     4     17     0.0302101731038
A399     6     6     19    -0.621228168441
A400     10     3     16     0.35873729129
A401     1     4     0     0.517565282614
A402     4     0     13    -0.204665124851
A403     2     5     13     0.61368066755
A404     1     5     2     0.321671903301
A405     5     6     9    -0.252257380278
A406     7     4     19     0.0139747552487
A407     6     4     2     0.469688089914
A408     0     5     17     0.97200507381
A409     10     6     14     0.187123773422
A410     1     2     6    -0.0686570888757
A411     12     0     7     0.748345258123
A412     3     6     1     0.632539283862
A413     11     2     4     0.475757427422
A414     6     4     3     0.0131752668368
A415     3     0     18    -0.67723280701
A416     5     2     16     0.572953111212
A417     10     1     10    -0.0580563431027
A418     1     4     18     0.311840692
A419     0     0     13    -0.567049280939
A420     0     3     0    -0.40612763252
A421     4     6     8    -0.841046960986
A422     10     2     9     0.879347917317
A423     8     2     19    -0.953331347327
A424     5     3     7    -0.601509676251
A425     11     2     6     0.875324428779
A426     2     0     15     0.295385491243
A427     0     4     11     0.709187990797
A428     12     1     4    -0.594930286328
A429     11     6     1    -0.54343983586
A430     4     2     1    -0.984244117364
A431     1     1     1     0.632049717514
A432     11     4     15     0.825450103633
A433     6     4     11     0.819227407723
A434     7     1     0     0.472115691182
A435     12     3     8    -0.463636269574
A436     6     6     11    -0.173796164722
A437     11     5     2    -0.623339986527
A438     1     6     13     0.70363954196
A439     11     6     8     0.159458205183
A440     7     4     17     0.238889103597
A441     0     3     1     0.121485397008
A442     10     0     19     0.239780024161
A443     3     6     16     0.290086527029
A444     4     3     15     0.524834308916
A445     8     5     15    -0.221259754664
A446     6     5     11     0.241439625079
A447     7     3     17    -0.715002385999
A448     9     5     0     0.309917449312
A449     0     4     9    -0.0570675214994
A450     3     3     9    -0.365547510755
A451     6     5     6    -0.539715932201
A452     9     5     8    -0.632046804157
A453     5     5     3    -0.443036436526
A454     9     2     5     0.452004854856
A455     2     5     18     0.099987665739
A456     5     3     1    -0.760599690117
A457     6     6     18     0.209638624106
A458     8     3     10     0.406919355762
A459     3     0     6     0.73358915415
A460     5     4     17    -0.247934794874
A461     2     5     13     0.262155585745
A462     3     6     16    -0.920568569777
A463     11     3     3     0.526491308819
A464     7     6     19     0.422920881304
A465     3     2     19    -0.427573768941
A466     9     4     9     0.623557626128
A467     7     1     16    -0.572687456097
A468     9     0     7    -0.628005989875
A469     5     5     4     0.276854334413
A470     11     0     4     0.406862151022
A471     2     5     18    -0.492561950643
A472     5     1     1     0.266633364089
A473     5     1     14    -0.0237797739146
A474     5     0     13    -0.996034157175
A475     2     3     10    -0.795590571507
A476     10     3     13     0.0796595794495
A477     11     2     8    -0.561842403642
A478     2     6     12    -0.768371556423
A479     12     4     16     0.263918831526
A480     3     0     19     0.427027692643
A481     2     3     15    -0.173949584391
A482     1     0     11    -0.82053361142
A483     2     6     17     0.591016021964
A484     6     5     8     0.390577484985
A485     10     3     10     0.186942478028
A486     3     2     14     0.576851665032
A487     8     0     10     0.173876969893
A488     0     1     3    -0.234057594448
A489     2     5     17    -0.621193513851
A490     2     1     1    -0.283112350693
A491     7     0     4    -0.987400806665
A492     8     4     11    -0.81083840906
A493     3     4     3    -0.103311319477
A494     8     5     9     0.67156213568
A495     12     4     16     0.84325508716
A496     0     1     14    -0.167719702109
A497     7     4     5    -0.62684583058
A498     4     3     11    -0.274121067431
A499     8     5     1     0.0484916782615
A500     4     4     6     0.50902888368
A501     8     4     12     0.165149316851
A502     11     3     4    -0.111145028883
A503     9     0     2    -0.65490078687
A504     7     3     0     0.118250008483
A505     12     1     15     0.779816684896
A506     12     1     13     0.225056464553
A507     6     5     12     0.552925349568
A508     12     6     5     0.31008755201
A509     1     4     18    -0.889985196835
A510     0     0     10    -0.642638203871
A511     1     6     12     0.820071274004
A512     11     5     12     0.0813364136353
A513     2     2     19     0.108841806423
A514     10     1     10     0.266191702805
A515     9     1     4    -0.105174659034
A516     4     1     5     0.141337035417
A517     11     0     4     0.886491693269
A518     11     3     19    -0.196707538068
A519     9     4     8     0.412697156332
A520     6     3     9     0.313694746677
A521     9     5     9     0.44912658438
A522     8     1     19    -0.623676691027
A523     8     0     10    -0.283291831693
A524     10     4     18    -0.0594509565553
A525     10     3     7     0.663286499831
A526     12     3     5     0.718342307771
A527     4     5     2     0.593303185694
A528     4     2     1     0.446831298661
A529     12     3     16     0.425936301618
A530     0     4     3     0.328030307394
A531     6     1     0     0.340301126872
A532     8     3     7    -0.128531808548
A533     5     5     4    -0.187786766757
A534     10     4     13     0.255041377184
A535     1     3     15    -0.236115762871
A536     4     2     6     0.929414433721
A537     5     2     0     0.741619928312
A538     1     0     9     0.621975023401
A539     12     3     12     0.901094671274
A540     2     1     19     0.326356629203
A541     7     5     19     0.573887659717
A542     12     6     3    -0.24151020337
A543     2     2     19     0.915428757158
A544     1     5     14    -0.15517769888
A545     9     0     2     0.978554543555
A546     10     5     18    -0.751578761847
A547     2     1     0    -0.666341702257
A548     11     5     12    -0.913948186076
A549     5     2     9    -0.455017454114
A550     0     4     1    -0.71681780164
A551     1     1     1     0.485335249544
A552     3     3     10     0.99980638768
A553     1     2     4    -0.881585149768
A554     6     5     11     0.596658297664
A555     1     3     13    -0.776698917858
A556     5     4     0     0.106203645475
A557     1     0     12    -0.843745128084
A558     12     6     16     0.376496931239
A559     5     1     5     0.658365284048
A560     9     3     19    -0.267382748683
A561     2     0     9    -0.00624181402863
A562     12     3     9     0.752126589476
A563     10     0     15     0.888663700699
A564     9     0     7    -0.493308456036
A565     11     2     17     0.470406517505
A566     11     2     0     0.778798217129
A567     3     1     3    -0.633459115491
A568     6     6     0     0.430188015766
A569     5     5     12     0.781996219002
A570     6     1     12    -0.0944524180383
A571     2     1     1     0.53762687301
A572     2     2     2    -0.724739593421
A573     3     3     16     0.829410222819
A574     11     3     15     0.391538376836
A575     6     0     5     0.864830434958
A576     10     6     1     0.596217131538
A577     4     5     19    -0.93464634648
A578     2     5     8     0.843506819296
A579     8     6     1    -0.148037918998
A580     3     3     8    -0.394081028757
A581     12     2     7    -0.39712475995
A582     4     5     18     0.189356765348
A583     10     2     14    -0.210540098675
A584     6     4     5    -0.981975609682
A585     6     6     17    -0.211928059623
A586     5     5     9    -0.351224198791
A587     8     3     1    -0.807323306829
A588     2     6     1     0.25925285553
A589     4     0     11    -0.616653147934
A590     2     2     19     0.314493004763
A591     12     1     1     0.697378208857
A592     6     1     5     0.00761942739432
A593     7     5     8     0.517989578839
A594     12     3     9     0.299763979207
A595     11     4     11    -0.667235049105
A596     11     3     13    -0.813276033806
A597     12     5     15    -0.807468446959
A598     9     0     18     0.150384715472
A599     4     0     6     0.721413318608
A600     8     1     13     0.426419411003
A601     7     5     6     0.14854656144
A602     8     2     16     0.815530356187
A603     6     3     1     0.63641029519
A604     4     6     5    -0.0696439552096
A605     1     4     17     0.143502940536
A606     8     6     12    -0.851144824007
A607     7     6     16     0.343548955379
A608     4     0     4     0.0997532242228
A609     3     6     11    -0.081672120582
A610     9     0     2    -0.883964790601
A611     10     4     3    -0.778373597588
A612     2     0     15     0.319303204449
A613     1     2     1     0.368909071876
A614     1     2     3     0.304283608827
A615     2     5     13    -0.0246448362112
A616     4     6     14    -0.389056888569
A617     8     1     14    -0.614365872419
A618     8     6     5    -0.578022703991
A619     10     1     19     0.0897554098995
A620     8     6     17     0.596550074107
A621     3     2     13     0.504713970671
A622     11     6     3     0.847856169339
A623     0     2     17    -0.312179851416
A624     12     6     9    -0.252873733611
A625     11     2     14     0.117799102481
A626     9     0     16     0.380935090178
A627     4     6     7     0.657759291224
A628     5     1     7    -0.0788374377624
A629     4     5     18     0.0693095632538
A630     9     0     3     0.748500410925
A631     4     2     0    -0.989559766486
A632     5     5     17     0.820167005851
A633     10     2     4     0.912943744814
A634     7     1     7    -0.56149778175
A635     0     1     6     0.779133030159
A636     6     0     18    -0.0721142447526
A637     6     6     0     0.355335424503
A638     0     2     5    -0.136371430563
A639     2     1     5     0.622858889887
A640     6     6     14     0.0826978000614
A641     7     4     7    -0.250060337771
A642     6     4     15    -0.931341446163
A643     2     5     3     0.195888639396
A644     10     2     8    -0.742494249796
A645     1     4     14     0.553885803877
A646     7     6     2    -0.618290668996
A647     6     6     2    -0.768257473829
A648     12     4     13     0.332085208906
A649     10     0     17    -0.952443315674
A650     2     1     16    -0.430537534586
A651     12     4     13     0.283714285385
A652     11     6     19     0.250174259259
A653     8     2     6     0.0642885233648
A654     8     4     4     0.51788539697
A655     8     4     14     0.663366536403
A656     9     2     11    -0.86336634502
A657     9     6     8    -0.893735101205
A658     9     6     18     0.0122626012449
A659     4     3     18     0.0539348929271
A660     9     3     7     0.0920348588634
A661     12     0     18     0.205380873499
A662     8     2     13     0.392356033832
A663     1     3     12    -0.696378018052
A664     1     5     12    -0.389408108933
A665     1     4     11    -0.32654294077
A666     6     1     18     0.0315003106202
A667     10     1     15    -0.850770318892
A668     2     0     3    -0.648897301568
A669     7     3     14     0.947863864294
A670     1     4     9    -0.430733046947
A671     9     2     16     0.545991779714
A672     5     2     6    -0.332908163981
A673     7     2     18    -0.30231832359
A674     6     1     0     0.154259679204
A675     7     3     3    -0.859615158272
A676     2     1     18    -0.141527656482
A677     5     3     17    -0.389990434007
A678     11     6     17     0.893255832527
A679     5     2     11    -0.484233472595
A680     6     3     9     0.748354616539
A681     9     5     7    -0.525865444808
A682     9     3     11     0.319799290017
A683     10     3     14     0.747109736002
A684     6     6     18    -0.299182516957
A685     2     0     11     0.416053112799
A686     11     5     11     0.366832091705
A687     12     3     15     0.468212084941
A688     5     2     5    -0.248565766297
A689     3     2     1    -0.453472863748
A690     1     6     7    -0.0100881183797
A691     9     5     7     0.572552460193
A692     5     3     3     0.99782673831
A693     1     1     15     0.399540853834
A694     11     5     3     0.831109246286
A695     0     6     18     0.960161837546
A696     10     0     3     0.180741275465
A697     7     0     9     0.0590711783281
A698     4     5     5    -0.236275968488
A699     11     6     6    -0.228562372416
A700     3     3     6    -0.322230514193
A701     2     1     14     0.332783501713
A702     2     5     11    -0.49398451596
A703     2     5     17     0.0753428944147
A704     2     2     12     0.475984402223
A705     6     3     17    -0.767033016073
A706     7     6     9    -0.656467969216
A707     1     0     15    -0.97284377088
A708     0     2     8    -0.573252376039
A709     8     1     0     0.135140011696
A710     12     5     9     0.692808561879
A711     12     0     3     0.676473297599
A712     10     2     6    -0.2143626655
A713     6     5     2    -0.919084241255
A714     12     0     7    -0.533478638623
A715     2     5     13    -0.700560809146
A716     3     4     3    -0.615264541629
A717     4     6     13    -0.417756592108
A718     10     5     0    -0.936202107707
A719     8     1     17     0.0652760528136
A720     11     0     19     0.770634805472
A721     2     6     8    -0.796783857887
A722     5     1     4     0.0247090349639
A723     8     0     18     0.813304295882
A724     8     6     1     0.444735430227
A725     5     0     1    -0.149884444552
A726     0     5     1     0.547779437303
A727     6     1     17     0.904904526125
A728     9     3     15     0.378116254421
A729     3     4     17     0.229079910085
A730     3     2     4     0.434045872978
A731     11     0     1     0.0294993623951
A732     5     4     18     0.756495497326
A733     12     1     5    -0.407649701663
A734     12     2     8    -0.60884200735
A735     2     4     1    -0.78889578359
A736     6     0     19    -0.427908186763
A737     5     6     6     0.152104153156
A738     5     5     10    -0.542381491974
A739     1     0     5    -0.154072689644
A740     2     4     13     0.0605459980159
A741     9     5     17    -0.0855769752278
A742     8     2     8    -0.971085564518
A743     5     1     8    -0.876644349128
A744     4     5     13     0.585419601789
A745     1     1     12     0.336243499988
A746     8     6     18     0.318343526596
A747     0     6     11    -0.00989247567522
A748     7     4     13     0.214421069415
A749     6     2     12     0.0867241929845
A750     2     1     14     0.857181417281
A751     1     3     8     0.370122752732
A752     3     6     6    -0.170725337125
A753     1     4     10     0.926485015293
A754     9     6     0     0.8619927621
A755     2     1     9    -0.563960440803
A756     1     1     7    -0.629586134177
A757     12     1     11    -0.768711439307
A758     7     0     16    -0.959938877493
A759     7     4     18     0.0128330206125
A760     5     0     17    -0.781309106956
A761     9     4     1    -0.665157089185
A762     2     4     17    -0.427786672643
A763     10     4     10     0.261611480623
A764     2     3     3     0.135029077569
A765     0     5     14    -0.943363175733
A766     0     1     0     0.176952447599
A767     2     0     12    -0.603177665932
A768     12     6     18     0.447050581832
A769     1     4     6    -0.607045203994
A770     5     5     3    -0.520865044055
A771     12     5     10    -0.705788872207
A772     10     6     3     0.926858206656
A773     4     3     16    -0.15011417939
A774     9     5     8     0.758849547981
A775     7     0     14    -0.638511514329
A776     8     3     1     0.518423865713
A777     11     3     18    -0.0125526974272
A778     1     2     17    -0.899419491733
A779     10     5     18     0.392360073139
A780     6     2     8     0.530312947553
A781     9     1     9    -0.215621469261
A782     10     0     15    -0.39272535277
A783     8     6     1    -0.436711061084
A784     3     6     15    -0.26316962918
A785     0     2     9    -0.813574130964
A786     12     3     15     0.0387085082168
A787     4     1     19     0.76951535861
A788     12     3     0     0.836668930263
A789     6     5     10    -0.460646091327
A790     12     4     1    -0.951634898356
A791     3     2     10     0.923000923603
A792     12     5     15     0.510372525343
A793     12     2     19    -0.13305947151
A794     5     4     1     0.281337444918
A795     7     5     5    -0.94172935001
A796     0     2     9    -0.740690097299
A797     10     5     1     0.599977791519
A798     7     1     12    -0.573328648201
A799     3     2     10     0.407873060892
A800     3     6     16     0.122442135638
A801     2     5     11     0.495729718032
A802     3     4     18     0.393303863414
A803     5     2     9    -0.333167245263
A804     11     0     5    -0.768206596746
A805     2     3     10     0.368993981803
A806     4     5     10    -0.576037668741
A807     3     4     14    -0.626882460165
A808     0     6     10    -0.972330330078
A809     2     2     10     0.0355444071992
A810     10     4     12    -0.736202792485
A811     10     3     5     0.756098507337
A812     6     3     0    -0.129926000156
A813     4     6     15    -0.56561216945
A814     3     3     15    -0.907917585988
A815     1     2     12     0.922972175965
A816     3     2     3     0.162409020003
A817     1     0     13    -0.428256491415
A818     7     0     0     0.430486986962
A819     0     2     0     0.747818259843
A820     10     4     3     0.467383569295
A821     12     6     2    -0.219695109047
A822     2     6     13    -0.082472435489
A823     9     5     18    -0.0491624239526
A824     6     2     6     0.29064035346
A825     0     1     4    -0.243567430854
A826     9     5     6    -0.496754702351
A827     9     1     7     0.979902559012
A828     10     5     0    -0.182538993551
A829     5     1     3     0.354370922932
A830     9     6     11    -0.3942248882
A831     12     5     8    -0.256420846886
A832     8     0     19    -0.368050564997
A833     4     6     11     0.589335656725
A834     4     3     10     0.763804998756
A835     12     5     13     0.644111192432
A836     11     4     18    -0.869719025893
A837     3     3     16    -0.414566172848
A838     9     1     19    -0.635318518045
A839     4     2     18     0.391461662114
A840     7     6     15    -0.929744548501
A841     4     5     9    -0.123556402168
A842     1     3     18     0.749534257953
A843     12     3     16     0.645007057847
A844     0     3     7     0.825561322046
A845     0     0     14     0.000308560630011
A846     5     4     17    -0.682422431167
A847     4     5     17     0.109253258058
A848     3     4     3    -0.124428277725
A849     7     3     10    -0.637482748585
A850     9     5     13     0.96035030671
A851     12     0     4     0.0160843855471
A852     4     4     0    -0.123826550942
A853     3     6     16     0.6867281056
A854     10     4     9    -0.684948114499
A855     4     0     14     0.504534235016
A856     7     6     0     0.0432034437386
A857     10     5     18     0.18915204623
A858     11     3     4     0.312501952177
A859     8     1     9     0.0571894055099
A860     12     5     10    -0.150402565884
A861     2     0     18     0.00139237742694
A862     10     4     13     0.64555435738
A863     2     5     12     0.652871440936
A864     3     6     17     0.64156002542
A865     1     5     9     0.736491946788
A866     0     6     11    -0.0321131642067
A867     9     2     4     0.221984648141
A868     2     3     9    -0.474365971757
A869     3     3     10    -0.95088343696
A870     1     4     8     0.186607547757
A871     8     3     15     0.0363274180956
A872     4     5     1     0.191599901718
A873     11     0     9     0.00992838434909
A874     5     1     9    -0.396403076642
A875     2     5     3     0.813691410533
A876     4     4     3     0.996813116821
A877     3     0     7     0.790545960668
A878     4     4     7     0.751762683331
A879     2     5     5     0.857611033827
A880     4     1     17     0.613103753153
A881     9     2     13     0.891694601179
A882     0     2     9     0.29230748758
A883     10     3     16     0.440108494498
A884     5     3     14    -0.741210902426
A885     12     2     19     0.103932959118
A886     0     2     13    -0.299150788955
A887     8     2     2     0.277697936694
A888     11     6     18     0.201369417695
A889     8     4     1    -0.298081757645
A890     4     3     16    -0.334874709973
A891     2     5     16     0.881555724412
A892     11     0     9     0.966489131387
A893     4     0     2    -0.501297474483
A894     6     0     11    -0.165996086753
A895     10     2     1    -0.0992081707856
A896     5     1     9    -0.00646008423019
A897     9     1     12    -0.965101310232
A898     7     2     15     0.32528029307
A899     3     5     0    -0.550489916686
A900     11     2     8     0.223229593912
A901     4     2     18    -0.0497609659263
A902     3     4     7    -0.98189949959
A903     4     3     19    -0.825561146295
A904     0     6     8    -0.594211438333
A905     8     3     8    -0.296250830945
A906     8     4     12    -0.560698090365
A907     8     3     10     0.361056915096
A908     0     2     8     0.874526797069
A909     7     3     12    -0.829555828713
A910     9     5     9     0.720629994796
A911     5     3     3     0.973723993261
A912     0     1     15     0.126571449225
A913     4     6     6     0.958025635601
A914     2     2     0     0.543629717913
A915     2     0     12    -0.524672731792
A916     10     5     14     0.809815528094
A917     11     2     17    -0.824198741975
A918     3     6     2     0.239042598217
A919     7     6     4     0.671607101702
A920     1     4     17    -0.707073070122
A921     8     3     10     0.396669403373
A922     10     0     8     0.986984085003
A923     5     4     10     0.492563742794
A924     9     4     9     0.186501310592
A925     6     6     7     0.142764520193
A926     8     4     15    -0.0291680426813
A927     5     2     18     0.859385600214
A928     0     2     13    -0.432994004657
A929     7     3     7    -0.00117411504163
A930     1     4     6    -0.733080192831
A931     3     1     4     0.115834914705
A932     2     3     3    -0.275309252699
A933     12     0     11    -0.325587780039
A934     12     6     5    -0.997202860485
A935     10     4     1     0.805676029437
A936     9     0     0     0.79772928084
A937     7     4     1    -0.202717595528
A938     6     1     18     0.890889445584
A939     10     5     8    -0.209071819089
A940     9     2     6     0.92079488951
A941     2     0     11     0.334766706392
A942     7     0     13    -0.724867438903
A943     12     2     0     0.713051753121
A944     8     4     17    -0.664580259328
A945     6     6     9     0.943851455037
A946     12     6     13    -0.55907965205
A947     1     3     17    -0.99293081087
A948     7     4     0     0.140092247177
A949     0     0     2    -0.638045050527
A950     2     5     11     0.718120735136
A951     6     1     8    -0.148016505269
A952     5     1     7    -0.428475961065
A953     5     2     18     0.442157187007
A954     2     3     8     0.283104450828
A955     5     3     1     0.380272334568
A956     8     0     2    -0.758349864544
A957     12     0     0     0.0760913064575
A958     7     6     14    -0.0619395601341
A959     12     2     15     0.339656180999
A960     9     2     15    -0.812810921751
A961     1     3     14     0.534866490869
A962     6     2     14    -0.858752961119
A963     9     4     2    -0.592302586337
A964     10     6     12     0.240844169951
A965     2     5     12    -0.251336162645
A966     10     5     10    -0.60380904972
A967     8     1     7     0.419301292309
A968     1     6     18     0.252419504899
A969     2     1     7     0.740330940788
A970     11     6     8    -0.578154966079
A971     0     1     2    -0.332477076039
A972     3     2     0     0.375460504648
A973     9     2     1    -0.143737371102
A974     1     1     17    -0.704094352308
A975     8     2     18    -0.617824551346
A976     12     4     17     0.98962444338
A977     10     1     6    -0.714336621802
A978     11     2     2     0.524051072713
A979     7     2     18     0.699765920416
A980     6     4     7    -0.734541163698
A981     4     3     15    -0.526442238975
A982     4     5     12    -0.413979686335
A983     1     3     3     0.279442065119
A984     4     2     1    -0.959801044041
A985     12     5     1     0.547704964315
A986     3     6     9     0.847380633253
A987     2     1     18     0.554896888807
A988     2     4     2    -0.162863639647
A989     9     0     3    -0.673040787658
A990     0     5     3    -0.373736348449
A991     2     2     6     0.535199157383
A992     7     2     4    -0.0999176823168
A993     9     1     7    -0.599558587153
A994     3     5     13     0.960982492521
A995     9     0     1     0.209891997621
A996     12     3     19    -0.809482824119
A997     11     1     5     0.0115257624357
A998     9     4     2     0.301164931163
A999     11     1     2    -0.16581154548
A1000     6     4     1    -0.474985441606
A1001     1     5     19    -0.776088282668
A1002     12     0     18    -0.303078831905
A1003     3     6     17    -0.737465670067
A1004     3     2     16    -0.764696528406
A1005     4     2     6    -0.318624101082
A1006     4     3     7     0.935535674845
A1007     0     0     3    -0.392788261996
A1008     11     1     8    -0.879937518179
A1009     12     2     18    -0.85332973715
A1010     6     4     15     0.65112175408
A1011     2     6     13    -0.603903698218
A1012     8     0     2     0.62094894682
A1013     4     3     13    -0.738481054813
A1014     6     4     16    -0.0732932894143
A1015     0     1     17    -0.76008420183
A1016     5     5     9     0.202190086257
A1017     11     6     4    -0.235627134046
A1018     7     2     5     0.509259016484
A1019     10     4     3    -0.850264954827
A1020     3     1     9     0.536376972222
A1021     1     1     9     0.354574615865
A1022     11     4     16     0.389372787995
A1023     1     5     16    -0.454802948708
A1024     5     0     10     0.955144390123
A1025     0     4     19    -0.877234208138
A1026     1     4     14    -0.483127115811
A1027     4     1     13     0.89445054844
A1028     2     6     1    -0.836203960948
A1029     8     2     7     0.617752937174
A1030     12     6     7    -0.932900130433
A1031     6     4     19    -0.75238357057
A1032     0     1     0     0.300206645163
A1033     4     5     12    -0.112921554815
A1034     1     4     4     0.467708492
A1035     10     6     7     0.871689206032
A1036     3     4     6    -0.361725848748
A1037     10     6     8     0.125158207713
A1038     2     5     17    -0.0853037304556
A1039     1     2     3     0.22109670388
A1040     8     6     5     0.324077489329
A1041     7     6     6     0.380971705757
A1042     12     4     6    -0.279145519755
A1043     4     0     3     0.973662228189
A1044     0     4     15    -0.643276771258
A1045     3     4     14     0.195526109928
A1046     5     1     9     0.579109744201
A1047     3     5     11    -0.308818328112
A1048     7     0     15    -0.6536535239
A1049     12     0     13    -0.555912878424
A1050     0     2     11     0.729658592352
A1051     11     6     3    -0.984636620934
A1052     0     5     14    -0.956639247469
A1053     7     6     4     0.540621397252
A1054     2     4     6    -0.36062933969
A1055     6     2     1    -0.84923831692
A1056     7     2     11     0.351386500148
A1057     9     2     18    -0.359795786311
A1058     7     3     5    -0.606862431771
A1059     1     4     2    -0.985942722372
A1060     11     6     8     0.712194132887
A1061     2     2     3    -0.596887473556
A1062     3     6     6     0.756336545422
A1063     9     0     3    -0.55897179023
A1064     10     4     16     0.189692200845
A1065     5     3     15    -0.22906652632
A1066     1     0     10     0.772020518365
A1067     3     4     7    -0.473645270738
A1068     12     1     0    -0.640376841338
A1069     0     5     9    -0.490367684678
A1070     1     0     12    -0.389494936403
A1071     0     5     17     0.369368152565
A1072     10     0     3     0.0803134826824
A1073     5     3     9    -0.703713323389
A1074     4     2     5    -0.523533037889
A1075     5     5     12    -0.990354050032
A1076     1     6     7     0.722537328081
A1077     3     1     11    -0.168475859769
A1078     4     6     1     0.162375095
A1079     10     3     7     0.394748885
A1080     4     4     5    -0.61481369643
A1081     7     6     4     0.328427431746
A1082     10     0     16    -0.540996908829
A1083     11     4     3    -0.362424083228
A1084     3     3     11     0.691430433891
A1085     10     2     1    -0.00895112780095
A1086     0     5     9    -0.0327145678004
A1087     0     6     16     0.34796623915
A1088     3     0     19    -0.896999782927
A1089     3     4     7     0.460909316604
A1090     9     4     8    -0.0237412062411
A1091     10     4     3    -0.764284744919
A1092     4     2     10     0.427643541148
A1093     1     5     18    -0.594739601972
A1094     8     1     4     0.16233761262
A1095     8     3     14     0.94695043639
A1096     12     6     6    -0.832305063302
A1097     7     1     3     0.721257144076
A1098     11     0     14    -0.445052325931
A1099     2     4     7     0.998355703249
A1100     5     4     2     0.0162723010941
A1101     4     5     9     0.409022034564
A1102     9     6     4    -0.417797623104
A1103     3     5     19    -0.195355588259
A1104     5     5     4     0.43809561716
A1105     3     4     14    -0.377595709371
A1106     10     3     5     0.726494164752
A1107     8     1     18     0.903804420419
A1108     11     5     5    -0.394874797927
A1109     6     3     7     0.670470161582
A1110     1     4     17     0.880941962675
A1111     1     0     13    -0.552040659888
A1112     9     5     13    -0.524376672219
A1113     8     1     3    -0.20837702225
A1114     8     6     4    -0.207251723325
A1115     6     6     5     0.464884909693
A1116     8     5     8    -0.780407888837
A1117     6     4     17    -0.613048604275
A1118     2     0     11     0.0578985148003
A1119     11     5     11     0.30176127198
