material13

BOUNDARIES
Number of particles: 100
x-coordinate: 20
y-coordinate: 20
z-coordinate: 20
Epsilon: 20
Sigma: 20
Charge: 20

loop_
_symmetry_equiv_pos_as_xyz
  x,y,z
_cell_length_a          20
_cell_length_b          20
_cell_length_c          20
_cell_angle_alpha       90.0000
_cell_angle_beta        90.0000
_cell_angle_gamma       90.0000
loop_
_atom_site_label
_atom_site_fract_x
_atom_site_fract_y
_atom_site_fract_z
_atom_site_charge
#NET CHARGE: 0.0
A0     0     2     6    -0.260407715033
A1     3     9     4     0.931180286354
A2     4     3     2    -0.986694102906
A3     6     0     11    -0.837380441299
A4     1     9     6     0.00659218283598
A5     3     9     6     0.789399016157
A6     5     5     2    -0.228406853973
A7     0     7     6     0.673898409564
A8     0     10     5     0.563609804344
A9     6     2     8    -0.68015605889
A10     0     2     10     0.736588851113
A11     3     2     11    -0.68213372585
A12     6     6     6     0.523561415847
A13     0     9     10    -0.384159178059
A14     4     11     8     0.423392669131
A15     5     5     7     0.687222295904
A16     4     5     8    -0.391789509143
A17     2     0     7    -0.386654139866
A18     4     1     1    -0.194323370729
A19     7     5     2    -0.284405882287
A20     1     0     2    -0.529230595178
A21     7     8     0     0.272969050076
A22     4     10     5    -0.372076925033
A23     5     6     4    -0.782833938406
A24     5     6     2     0.633011118904
A25     3     8     4     0.931837039651
A26     0     11     5     0.0610454721178
A27     5     1     4    -0.966941298103
A28     7     7     0    -0.678731398936
A29     4     1     3     0.659819696916
A30     3     2     0     0.169175176262
A31     4     0     5    -0.0707249772088
A32     3     2     0     0.462733641694
A33     4     10     2    -0.0749283257475
A34     6     7     4     0.638656555699
A35     3     2     5    -0.132173829284
A36     6     11     6     0.457052390442
A37     2     3     7    -0.540666992549
A38     3     0     6    -0.156925814532
