material28

BOUNDARIES
Number of particles: 100
x-coordinate: 20
y-coordinate: 20
z-coordinate: 20
Epsilon: 20
Sigma: 20
Charge: 20

loop_
_symmetry_equiv_pos_as_xyz
  x,y,z
_cell_length_a          20
_cell_length_b          20
_cell_length_c          20
_cell_angle_alpha       90.0000
_cell_angle_beta        90.0000
_cell_angle_gamma       90.0000
loop_
_atom_site_label
_atom_site_fract_x
_atom_site_fract_y
_atom_site_fract_z
_atom_site_charge
#NET CHARGE: 0.0
A0     2     11     2    -0.0969760964834
A1     5     2     5     0.8988594729
A2     0     9     2    -0.501328300107
A3     5     15     2    -0.85934626213
A4     3     9     3    -0.454050183399
A5     4     17     2    -0.787609727876
A6     5     13     1    -0.969148894533
A7     2     16     0    -0.0211454611314
A8     2     9     4     0.812779583397
A9     5     13     3     0.0605676562772
A10     5     1     5    -0.940396153894
A11     2     19     0     0.085881191743
A12     4     11     5     0.128126005481
A13     3     18     3     0.863844710058
A14     0     17     5    -0.624701033592
A15     5     0     5     0.127395507731
A16     3     8     4     0.882050196553
A17     4     7     3     0.530773005356
A18     3     12     0    -0.719515121167
A19     0     17     2    -0.904818291515
A20     4     13     3    -0.0786786100129
A21     1     5     5    -0.851273309046
A22     0     10     3     0.485645751934
A23     0     2     2     0.355200938692
A24     2     2     4    -0.525571732873
A25     4     13     5     0.617463037782
A26     4     11     3    -0.785539376694
A27     1     5     0    -0.812668111746
A28     5     10     3     0.321963422005
A29     5     7     2    -0.620473732285
A30     4     0     3     0.0891476451252
A31     3     18     5     0.612557028348
A32     0     15     2     0.419173766363
A33     4     19     4     0.178897992491
A34     3     0     0    -0.868572191327
A35     3     3     0     0.756994246808
A36     4     9     2    -0.893048548544
A37     0     18     2    -0.226889172096
A38     2     14     4    -0.757449830661
A39     4     4     3     0.437173131674
A40     5     10     1     0.858667848034
A41     3     19     4    -0.668548593673
A42     5     2     4    -0.147877590376
A43     0     17     0     0.614678898541
A44     2     0     3     0.443418333752
A45     3     8     2    -0.158164530475
A46     3     6     0     0.212742460249
A47     0     11     4     0.496018991621
A48     1     17     0    -0.6711703078
A49     1     3     2     0.347367637118
A50     0     8     2     0.965019736426
A51     3     15     2     0.946538613719
A52     3     3     0     0.979160069172
A53     5     8     0    -0.467081704823
A54     5     19     3     0.173619129004
A55     0     18     1     0.065024597696
A56     4     1     2    -0.0798722243698
A57     1     6     5     0.550508053245
A58     2     18     0     0.915191394713
A59     4     0     1    -0.458713445833
A60     3     0     5    -0.395520690744
A61     1     18     1    -0.623504338196
A62     3     17     5    -0.40510046718
A63     4     13     5    -0.417648000698
A64     3     17     5    -0.211965448606
A65     0     2     1     0.835261110015
A66     3     19     4     0.792462864004
A67     4     6     1     0.289757780115
A68     4     17     2     0.100055168119
A69     1     17     2    -0.245619492374
