material30

BOUNDARIES
Number of particles: 100
x-coordinate: 20
y-coordinate: 20
z-coordinate: 20
Epsilon: 20
Sigma: 20
Charge: 20

loop_
_symmetry_equiv_pos_as_xyz
  x,y,z
_cell_length_a          20
_cell_length_b          20
_cell_length_c          20
_cell_angle_alpha       90.0000
_cell_angle_beta        90.0000
_cell_angle_gamma       90.0000
loop_
_atom_site_label
_atom_site_fract_x
_atom_site_fract_y
_atom_site_fract_z
_atom_site_charge
#NET CHARGE: 0.0
A0     8     3     0    -0.135187957251
A1     0     7     1    -0.97419655402
A2     9     2     2     0.845320820535
A3     1     3     0     0.772574654335
A4     7     5     1     0.258527238358
A5     5     6     2     0.609226514625
A6     0     4     2    -0.469892440012
A7     2     7     0    -0.548377411274
A8     7     4     0     0.325396189759
A9     10     1     1    -0.76367654788
A10     6     4     1    -0.712371893301
A11     6     0     0     0.658534655949
A12     9     6     0     0.54142290714
A13     0     2     1     0.570580966543
A14     2     0     0     0.820423447108
A15     3     5     2     0.353045541411
A16     0     0     2     0.438846463421
A17     2     3     1     0.133631594684
A18     2     2     0     0.440989920633
A19     1     3     2     0.0448231986046
A20     7     4     0    -0.183857626239
A21     3     7     1    -0.642915820263
A22     10     6     1    -0.462101207205
A23     3     7     0    -0.509764744444
A24     3     5     0     0.264260300642
A25     4     3     1     0.517169119732
A26     0     0     1    -0.869437376765
A27     7     1     2    -0.9955621573
A28     2     5     0    -0.0163089193397
A29     9     0     1     0.604451867476
A30     9     4     2     0.636371763642
A31     4     2     2    -0.302164576404
A32     1     7     1     0.152457895533
A33     9     3     0    -0.497904650756
A34     6     6     0    -0.822047038956
A35     0     7     0    -0.0822881387201
