material0

BOUNDARIES
Number of particles: 100
x-coordinate: 20
y-coordinate: 20
z-coordinate: 20
Epsilon: 20
Sigma: 20
Charge: 20

loop_
_symmetry_equiv_pos_as_xyz
  x,y,z
_cell_length_a          20
_cell_length_b          20
_cell_length_c          20
_cell_angle_alpha       90.0000
_cell_angle_beta        90.0000
_cell_angle_gamma       90.0000
loop_
_atom_site_label
_atom_site_fract_x
_atom_site_fract_y
_atom_site_fract_z
_atom_site_charge
#NET CHARGE: 0.0
A0     15     2     2    -0.21830512232
A1     3     3     1     0.776927260185
A2     9     3     2    -0.552794841127
A3     11     0     1     0.124772053995
A4     6     3     0    -0.14102195114
A5     11     5     2    -0.133725517568
A6     16     0     0     0.144148117976
