material0

BOUNDARIES
Number of particles: 100
x-coordinate: 20
y-coordinate: 20
z-coordinate: 20
Epsilon: 20
Sigma: 20
Charge: 20

loop_
_symmetry_equiv_pos_as_xyz
  x,y,z
_cell_length_a          20
_cell_length_b          20
_cell_length_c          20
_cell_angle_alpha       90.0000
_cell_angle_beta        90.0000
_cell_angle_gamma       90.0000
loop_
_atom_site_label
_atom_site_fract_x
_atom_site_fract_y
_atom_site_fract_z
_atom_site_charge
#NET CHARGE: 0.0
A0     4     4     3     0.555222048536
A1     1     6     5    -0.212219832585
A2     3     13     1    -0.913090943293
A3     8     13     2     0.652348942564
A4     4     5     0     0.690015221392
A5     9     11     1    -0.105036003982
A6     9     2     4    -0.42956924005
A7     1     2     2     0.828838339582
A8     0     2     4     0.164731061903
A9     5     18     2     0.534468812009
A10     2     8     2    -0.878922221979
A11     1     5     4    -0.155127818971
A12     4     4     4    -0.725669636147
A13     8     5     5     0.865113024928
A14     5     9     1     0.790768653635
A15     0     18     4     0.870454827106
A16     3     7     0    -0.0750022721138
A17     6     15     0     0.439058462342
A18     3     8     2     0.0642078774402
A19     3     14     3    -0.485866564963
A20     4     3     3     0.6359840699
A21     5     18     1    -0.249260538745
A22     10     18     2    -0.982520074783
A23     5     14     4    -0.212387596448
A24     8     9     0    -0.622812623463
A25     9     10     3    -0.23857629722
A26     1     3     0    -0.812711797561
A27     6     11     4     0.691761814137
A28     2     9     5    -0.738799408162
A29     5     18     5     0.851958459123
A30     8     15     0    -0.558528749549
A31     2     8     5     0.0996453024954
A32     3     10     2    -0.561894468053
A33     9     5     4     0.741306191189
A34     1     11     1     0.589011820269
A35     6     6     3    -0.732713808831
A36     8     16     3    -0.374185031652
