material0

BOUNDARIES
Number of particles: 104
x-coordinate: 20
y-coordinate: 20
z-coordinate: 20
Epsilon: 20
Sigma: 20
Charge: 20

loop_
_symmetry_equiv_pos_as_xyz
  x,y,z
_cell_length_a          20
_cell_length_b          20
_cell_length_c          20
_cell_angle_alpha       90.0000
_cell_angle_beta        90.0000
_cell_angle_gamma       90.0000
loop_
_atom_site_label
_atom_site_fract_x
_atom_site_fract_y
_atom_site_fract_z
_atom_site_charge
#NET CHARGE: 0.0
A0     8     6     5    -0.582308335666
A1     17     5     5     0.39087115821
A2     3     3     10     0.261896160361
A3     7     3     14     0.54644358169
A4     12     7     6     0.199238155954
A5     8     6     8    -0.0586651840414
A6     1     6     3     0.184692999845
A7     2     2     4     0.753182021409
A8     11     5     3     0.216266621386
A9     9     2     14     0.463058518269
A10     14     0     4    -0.126793442141
A11     14     1     2    -0.279907232405
A12     10     0     13     0.355559382831
A13     3     3     6    -0.376477770591
A14     0     3     12    -0.736317676085
A15     0     7     1    -0.55612332027
A16     6     3     13    -0.736371397541
A17     5     6     1     0.649899195834
A18     17     5     13     0.121185608783
A19     15     1     2     0.472461972924
A20     17     0     11     0.529874908773
A21     4     7     11    -0.627701788507
A22     10     0     0    -0.369492224305
A23     3     7     6    -0.588821658999
A24     6     3     14    -0.305955344126
A25     7     0     13    -0.448586644349
A26     16     2     14     0.648891732755
