material19

BOUNDARIES
Number of particles: 100
x-coordinate: 20
y-coordinate: 20
z-coordinate: 20
Epsilon: 20
Sigma: 20
Charge: 20

loop_
_symmetry_equiv_pos_as_xyz
  x,y,z
_cell_length_a          20
_cell_length_b          20
_cell_length_c          20
_cell_angle_alpha       90.0000
_cell_angle_beta        90.0000
_cell_angle_gamma       90.0000
loop_
_atom_site_label
_atom_site_fract_x
_atom_site_fract_y
_atom_site_fract_z
_atom_site_charge
#NET CHARGE: 0.0
A0     1     7     9     0.227363741274
A1     2     9     0    -0.602849694185
A2     5     15     3     0.435417413773
A3     0     11     7    -0.226859524081
A4     13     16     8     0.562776376453
A5     3     14     1    -0.545805858318
A6     0     0     6     0.821529185426
A7     10     18     5     0.391154961405
A8     11     12     10     0.996254575816
A9     10     10     4    -0.988896511617
A10     12     7     6     0.168089512577
A11     13     2     11    -0.876123454242
A12     9     6     7    -0.631568677092
A13     11     17     7    -0.219149012148
A14     10     8     10     0.319140346004
A15     1     9     0    -0.533387181073
A16     1     18     2    -0.929484429323
A17     3     3     13     0.100541818635
A18     9     9     8    -0.967134100487
A19     8     0     9    -0.663273016925
A20     13     18     8     0.60902874971
A21     0     10     9     0.484977251287
A22     7     4     0     0.148629383179
A23     15     17     5     0.64627622077
A24     10     10     6     0.173206318996
A25     8     17     4     0.844215785531
A26     7     2     8    -0.782271685319
A27     12     3     9    -0.818746124051
A28     1     16     7    -0.117198150524
A29     2     3     12     0.237590511482
A30     9     9     4    -0.235211661011
A31     10     13     9     0.89439993681
A32     5     8     0     0.0273677262732
A33     12     15     12    -0.800224681994
A34     1     18     2     0.449217569739
A35     9     2     0    -0.797069166926
A36     9     7     4     0.854301773994
A37     5     1     6     0.300793815256
A38     0     9     11     0.185107146892
A39     0     8     5    -0.353810583849
A40     13     10     7     0.346373466421
A41     0     11     4     0.297287437422
A42     12     1     1     0.425901701449
A43     3     3     2     0.142120786594
