material27

BOUNDARIES
Number of particles: 100
x-coordinate: 20
y-coordinate: 20
z-coordinate: 20
Epsilon: 20
Sigma: 20
Charge: 20

loop_
_symmetry_equiv_pos_as_xyz
  x,y,z
_cell_length_a          20
_cell_length_b          20
_cell_length_c          20
_cell_angle_alpha       90.0000
_cell_angle_beta        90.0000
_cell_angle_gamma       90.0000
loop_
_atom_site_label
_atom_site_fract_x
_atom_site_fract_y
_atom_site_fract_z
_atom_site_charge
#NET CHARGE: 0.0
A0     17     11     5     0.339143832532
A1     0     6     12     0.0650676815759
A2     8     8     10    -0.754749906108
A3     15     8     6     0.333342786174
A4     9     4     11    -0.704026885108
A5     2     0     6    -0.025738862383
A6     8     2     2    -0.0246082486753
A7     12     1     7     0.390625664871
A8     16     11     0    -0.79487555735
A9     5     9     8     0.803616188393
A10     16     1     0     0.366469263041
A11     12     10     4    -0.402325387117
A12     16     3     10    -0.924453192328
A13     10     7     9    -0.127863694085
A14     15     11     8     0.2814028836
A15     1     11     5    -0.702340866851
A16     16     9     5     0.54092921815
A17     14     11     2    -0.752173002773
A18     11     6     6     0.9364596364
A19     7     11     3     0.935316171985
A20     1     10     9     0.747142607625
A21     4     11     1    -0.759167468277
A22     16     7     4    -0.313585556502
A23     7     4     3     0.825624467935
A24     12     1     4     0.982782682801
A25     17     4     0    -0.349643172628
A26     7     6     9    -0.516855374317
A27     12     3     6    -0.406491012766
A28     10     3     5    -0.622340845543
A29     9     3     12    -0.174734028862
A30     4     10     0     0.968027225792
A31     14     11     9     0.0391532313243
A32     13     6     3    -0.618822249222
A33     14     4     5     0.128600134906
A34     9     1     6    -0.263814186679
A35     4     1     2    -0.252224532079
A36     12     10     8    -0.370084667949
A37     12     4     9     0.366883096207
A38     15     4     8     0.396574674947
A39     9     4     0     0.580532058014
A40     8     1     11    -0.501708567789
A41     5     6     11     0.379112166366
A42     1     6     6    -0.872803385658
A43     16     3     10     0.938395811159
A44     5     0     6     0.783008782827
A45     15     9     7     0.2123271653
A46     2     0     12     0.551566671201
A47     16     8     9     0.649944284892
A48     7     10     1    -0.555639231827
A49     7     0     0     0.675713477325
A50     8     10     4     0.108230252756
A51     2     6     12     0.45029316769
A52     11     9     8    -0.462594231295
A53     2     2     11    -0.25802641416
A54     10     9     0     0.935305262952
A55     2     0     9    -0.354852433501
A56     12     0     1    -0.748107289202
A57     5     4     6    -0.647370287683
A58     3     4     10     0.607770347193
A59     1     0     12    -0.122389760062
A60     13     5     0     0.695460651212
A61     1     11     2     0.719314037166
A62     4     5     6    -0.310462446917
A63     2     6     0    -0.0929410943192
A64     2     5     11    -0.923328600216
A65     3     4     2     0.31713285382
A66     1     6     4    -0.797809235093
A67     4     8     2    -0.904108627873
A68     3     3     6    -0.421071668248
A69     6     3     5    -0.217136466689
