material6

BOUNDARIES
Number of particles: 100
x-coordinate: 20
y-coordinate: 20
z-coordinate: 20
Epsilon: 20
Sigma: 20
Charge: 20

loop_
_symmetry_equiv_pos_as_xyz
  x,y,z
_cell_length_a          20
_cell_length_b          20
_cell_length_c          20
_cell_angle_alpha       90.0000
_cell_angle_beta        90.0000
_cell_angle_gamma       90.0000
loop_
_atom_site_label
_atom_site_fract_x
_atom_site_fract_y
_atom_site_fract_z
_atom_site_charge
#NET CHARGE: 0.0
A0     6     1     10    -0.755431766288
A1     4     1     2     0.0915181242504
A2     5     3     3     0.103388632207
A3     1     2     7    -0.522257725463
A4     6     3     10    -0.629973174315
A5     5     0     14     0.92368811252
A6     1     1     6     0.789067797088
