material20

BOUNDARIES
Number of particles: 100
x-coordinate: 20
y-coordinate: 20
z-coordinate: 20
Epsilon: 20
Sigma: 20
Charge: 20

loop_
_symmetry_equiv_pos_as_xyz
  x,y,z
_cell_length_a          20
_cell_length_b          20
_cell_length_c          20
_cell_angle_alpha       90.0000
_cell_angle_beta        90.0000
_cell_angle_gamma       90.0000
loop_
_atom_site_label
_atom_site_fract_x
_atom_site_fract_y
_atom_site_fract_z
_atom_site_charge
#NET CHARGE: 0.0
A0     10     5     0     0.752672440855
A1     1     6     0    -0.85004229156
A2     0     9     1     0.097369850705
