material10

BOUNDARIES
Number of particles: 100
x-coordinate: 20
y-coordinate: 20
z-coordinate: 20
Epsilon: 20
Sigma: 20
Charge: 20

loop_
_symmetry_equiv_pos_as_xyz
  x,y,z
_cell_length_a          20
_cell_length_b          20
_cell_length_c          20
_cell_angle_alpha       90.0000
_cell_angle_beta        90.0000
_cell_angle_gamma       90.0000
loop_
_atom_site_label
_atom_site_fract_x
_atom_site_fract_y
_atom_site_fract_z
_atom_site_charge
#NET CHARGE: 0.0
A0     1     11     0     0.562275240165
A1     5     2     0    -0.31931561644
A2     6     3     0     0.309583845545
A3     16     2     0    -0.410720102811
A4     15     1     0    -0.0768108037079
A5     14     11     0    -0.635453637323
A6     12     9     0    -0.369821947428
A7     9     3     0     0.812401923563
A8     11     13     0     0.037378617911
A9     10     12     0     0.0904824805257
