material22

BOUNDARIES
Number of particles: 100
x-coordinate: 20
y-coordinate: 20
z-coordinate: 20
Epsilon: 20
Sigma: 20
Charge: 20

loop_
_symmetry_equiv_pos_as_xyz
  x,y,z
_cell_length_a          20
_cell_length_b          20
_cell_length_c          20
_cell_angle_alpha       90.0000
_cell_angle_beta        90.0000
_cell_angle_gamma       90.0000
loop_
_atom_site_label
_atom_site_fract_x
_atom_site_fract_y
_atom_site_fract_z
_atom_site_charge
#NET CHARGE: -8.881784197e-16
A0     2     16     6    -0.524243636517
A1     5     2     12    -0.198771582172
A2     1     4     9     0.950341321087
A3     8     4     6     0.10389625577
A4     6     11     5     0.264372337094
A5     8     0     5     0.566691983194
A6     5     13     1    -0.483869085084
A7     8     15     1     0.171401966988
A8     4     12     7     0.773647792848
A9     0     10     0    -0.858167440226
A10     6     16     11    -0.143748943146
A11     2     3     10    -0.0490424620924
A12     1     4     10    -0.223748175815
A13     9     7     13    -0.307591191043
A14     7     5     5     0.482469134609
A15     8     11     9    -0.42918076202
A16     1     15     10    -0.882514011116
A17     3     15     16     0.762577255484
A18     1     11     8    -0.210785367418
A19     5     3     9    -0.0159312898811
A20     6     11     6    -0.268547628209
A21     9     1     11    -0.533656510202
A22     4     3     15    -0.328963438668
A23     2     15     12    -0.318771601738
A24     6     4     13    -0.245842228552
A25     4     4     12    -0.195379738898
A26     3     14     0     0.686350410047
A27     0     14     4     0.961982583469
A28     5     6     7     0.959217693796
A29     8     12     14    -0.699047174969
A30     0     13     0     0.879574616723
A31     9     16     11     0.459326908907
A32     1     7     9     0.132829336337
A33     5     11     5     0.020605589988
A34     8     5     14     0.510790506616
A35     7     16     9    -0.878584907371
A36     8     9     8     0.318623792373
A37     0     9     6     0.209672154637
A38     9     13     15    -0.471631219151
A39     1     6     11     0.973889924022
A40     1     5     6     0.786612458422
A41     9     9     1    -0.142759740558
A42     9     3     13    -0.178651140287
A43     6     16     7    -0.514343283637
A44     3     4     2     0.746332494888
A45     8     3     10     0.39385537235
A46     9     2     11    -0.0811598296598
A47     6     1     2    -0.608291315908
A48     8     10     13    -0.725197972345
A49     0     12     12    -0.568809019933
A50     0     10     15    -0.732631482358
A51     0     6     3     0.783551041591
A52     1     15     8    -0.151377845601
A53     8     5     7    -0.385198022024
A54     4     8     8    -0.281544855998
A55     5     6     10    -0.296385266338
A56     7     2     4    -0.436508740974
A57     1     0     5     0.0156992702196
A58     9     0     2     0.504818300445
A59     9     6     0    -0.264622549442
A60     5     14     12     0.822638967664
A61     7     0     1    -0.738859733702
A62     6     12     9    -0.942117237296
A63     8     15     2    -0.136689872061
A64     3     4     9     0.407025697961
A65     0     8     13    -0.70365346456
A66     6     5     7    -0.279133163994
A67     2     8     12    -0.125075277644
A68     2     3     16    -0.678033248681
A69     4     1     0     0.787710970302
A70     5     4     15    -0.495939492373
A71     4     5     6    -0.323929114233
A72     1     11     11    -0.85680683337
A73     4     8     9     0.698744557308
A74     5     1     3     0.904272917158
A75     4     8     3    -0.933260552552
A76     4     5     4     0.970655741343
A77     7     2     4     0.966256596625
A78     7     5     16    -0.666322502999
A79     0     3     5     0.512532463945
A80     8     0     11     0.97412197057
A81     7     6     9    -0.741539143597
A82     8     10     14    -0.65084452142
A83     4     7     13     0.694608694557
A84     5     3     13    -0.729269715669
A85     2     3     3     0.499211794099
A86     7     7     1     0.0683998769915
A87     0     2     6     0.518579613342
A88     9     1     13    -0.246869259751
A89     2     15     16    -0.525021258081
A90     6     4     4     0.113814594453
A91     2     2     9    -0.263618527758
A92     6     0     4     0.753943074255
A93     7     7     11    -0.915429953315
A94     0     12     16     0.197999544502
A95     6     11     16     0.342602310663
A96     2     0     0     0.464804027894
A97     4     4     1    -0.279868118575
A98     6     16     9     0.979716313803
A99     0     13     7    -0.302173733297
A100     2     11     12    -0.87785457832
A101     0     1     10     0.343140775326
A102     8     7     6     0.155406347412
A103     7     10     15    -0.750719154537
A104     7     1     12     0.635678033787
A105     2     2     16     0.842783064361
A106     4     15     6    -0.0221249979157
A107     9     5     5     0.155744121585
A108     3     0     7     0.209501908678
A109     6     15     6    -0.924488002833
A110     4     16     4     0.211548882863
A111     1     11     4     0.416846947788
A112     3     11     11    -0.906920173772
A113     7     13     6    -0.41786075259
A114     1     6     6     0.144059911394
A115     3     13     8    -0.369380170362
A116     2     5     2     0.821502415692
A117     8     5     12    -0.956803496293
A118     1     2     16     0.628865384637
A119     1     14     3    -0.0418206963395
A120     4     9     12    -0.976380624952
A121     6     5     10    -0.922094511714
A122     4     15     13     0.790311617713
A123     8     12     2    -0.126406585269
A124     5     5     8     0.0271193701315
A125     7     10     15     0.505252013992
A126     2     10     0    -0.616052231484
A127     0     1     14    -0.808423249522
A128     6     9     13     0.712268526386
A129     0     6     13    -0.200455737625
A130     5     13     1    -0.216029885401
A131     2     13     4    -0.287129333629
A132     5     5     8     0.67063337031
A133     5     7     4     0.0132247176072
A134     8     2     10     0.227237225563
A135     2     9     0    -0.275016619815
A136     7     11     6    -0.974324114851
A137     1     13     0    -0.768333702758
A138     3     15     12     0.640031921713
A139     4     10     14    -0.64596552175
A140     9     13     5    -0.350689132907
A141     5     5     11     0.482505097512
A142     2     16     3     0.684522380709
A143     4     5     1    -0.551531574001
A144     6     2     4    -0.106526842363
A145     7     10     2     0.846596017782
A146     4     11     13    -0.396082735345
A147     2     9     10     0.679270676643
A148     3     6     14    -0.946930249464
A149     5     7     1     0.00320951161473
A150     2     7     5    -0.483106852688
A151     9     8     0     0.611142948342
A152     5     2     5     0.43168107268
A153     0     12     0     0.218811028253
A154     8     2     8     0.945953889823
A155     9     5     1    -0.184623864205
A156     4     5     5     0.543536085751
A157     2     12     13     0.718715857661
A158     3     14     11     0.864059527811
A159     4     11     0     0.766776218907
A160     1     6     9     0.595279565052
A161     5     2     1     0.777884266402
A162     7     1     5     0.627247668677
A163     0     14     14    -0.00306745195932
A164     8     12     14     0.943633947559
A165     5     5     11    -0.948143911954
A166     7     5     15     0.670195875759
A167     7     5     9    -0.335550945043
A168     7     8     2    -0.724145078889
A169     2     9     10     0.584871146898
A170     3     9     16    -0.112219195274
A171     7     14     8     0.86159572371
A172     6     1     16     0.198942886598
A173     4     5     1    -0.473054584313
A174     1     12     12    -0.308687461929
A175     9     9     10    -0.437169916046
A176     1     2     16     0.470677143393
A177     8     2     7    -0.609909589631
A178     4     15     15    -0.682690592758
A179     2     11     4    -0.846214667911
A180     0     2     11    -0.847145632926
A181     6     14     5     0.127648018025
A182     6     14     10     0.891008994315
A183     4     12     2    -0.486995895971
A184     7     15     14    -0.949447787688
A185     6     7     4    -0.254147838516
A186     9     10     15     0.299162996997
A187     1     16     12     0.199764794642
