material17

BOUNDARIES
Number of particles: 100
x-coordinate: 20
y-coordinate: 20
z-coordinate: 20
Epsilon: 20
Sigma: 20
Charge: 20

loop_
_symmetry_equiv_pos_as_xyz
  x,y,z
_cell_length_a          20
_cell_length_b          20
_cell_length_c          20
_cell_angle_alpha       90.0000
_cell_angle_beta        90.0000
_cell_angle_gamma       90.0000
loop_
_atom_site_label
_atom_site_fract_x
_atom_site_fract_y
_atom_site_fract_z
_atom_site_charge
#NET CHARGE: -3.33066907388e-16
A0     4     11     9     0.563012478004
A1     15     12     10     0.777639972621
A2     3     5     11    -0.666748383863
A3     15     7     5     0.0334920202102
A4     4     10     9     0.0874859733297
A5     0     1     9    -0.236840831798
A6     3     9     11     0.318483561716
A7     6     9     6    -0.68587550184
A8     0     6     5    -0.95536811415
A9     3     6     2     0.195428915001
A10     8     8     7     0.554742588322
A11     2     14     15    -0.416511379698
A12     13     9     11    -0.589489339918
A13     8     5     6    -0.373491077084
A14     13     6     7     0.461744937741
A15     2     12     17    -0.362953933828
A16     1     5     10    -0.333090517509
A17     4     12     12    -0.87020594287
A18     4     9     3     0.596168977846
A19     13     6     15     0.891225204803
A20     10     9     16    -0.324160706989
A21     14     13     10    -0.289438601857
A22     7     6     5    -0.140953139357
A23     14     5     6    -0.933168742445
A24     8     11     11    -0.887743253998
A25     13     1     7     0.473838790341
A26     2     5     3    -0.0938231027502
A27     9     9     14     0.126798229851
A28     9     12     14     0.125753523749
A29     15     11     17     0.853998225835
A30     4     3     10    -0.29322027485
A31     11     0     14     0.894078860099
A32     12     13     8    -0.715898997178
A33     7     9     12    -0.51175770198
A34     7     2     3    -0.858721764537
A35     14     12     13     0.621711773212
A36     5     4     5    -0.647402425983
A37     14     13     8    -0.932695688219
A38     2     0     11    -0.37786364997
A39     11     12     10    -0.725390747764
A40     4     10     0     0.0668835561381
A41     13     10     17     0.958668980642
A42     9     13     4    -0.84335474234
A43     6     2     6     0.818624029414
A44     9     0     12    -0.719642622358
A45     8     5     8    -0.116879861302
A46     5     3     1     0.163914159659
A47     3     4     4    -0.452654607871
A48     10     2     0     0.787481457884
A49     1     13     6     0.526311198818
A50     8     6     17     0.418336765931
A51     11     3     16     0.554392391481
A52     7     8     9     0.35111770108
A53     9     4     3     0.0439189495083
A54     8     0     8     0.723175315326
A55     13     13     17    -0.750341847841
A56     9     2     13    -0.730705852447
A57     12     6     12     0.212840599111
A58     4     14     16     0.0128636819217
A59     13     10     15     0.258027197773
A60     13     8     17    -0.0427158523446
A61     12     12     7     0.471493862942
A62     7     11     12     0.0326819252966
A63     5     13     11    -0.270181758248
A64     12     10     13     0.350387699178
A65     7     2     12    -0.241042723914
A66     5     5     16     0.184660553375
A67     3     12     8     0.611305513429
A68     8     10     12     0.942369101954
A69     15     7     10     0.873752950785
A70     3     14     15     0.540188302066
A71     14     0     16     0.300556701513
A72     0     1     0    -0.141579788239
A73     11     8     17    -0.863006493519
A74     11     13     13    -0.711508085462
A75     6     13     16     0.769040963147
A76     14     11     0     0.292663867078
A77     14     2     8     0.682864847308
A78     1     0     12     0.623823663966
A79     9     3     16     0.797440978085
A80     6     3     16    -0.878782510818
A81     10     0     8    -0.767298700696
A82     13     4     4    -0.959529771501
A83     1     4     12    -0.61159858799
A84     13     8     9     0.60872176986
A85     1     13     8     0.479230482343
A86     9     11     13     0.909135107225
A87     6     11     4    -0.678090888728
A88     4     8     10    -0.71458360956
A89     13     13     14    -0.336991217947
A90     6     11     13     0.941914919294
A91     7     7     6    -0.396791860047
A92     1     2     13     0.805127438993
A93     10     14     7    -0.209294243323
A94     12     8     0     0.455763279338
A95     3     3     1     0.422104443762
A96     14     12     15    -0.907998941373
